test/data/matpower/multi_nw/bus_90/pypsa-eur_multinetwork_90/mpc_007_007.m
function mpc = mpc_007_007
%MPC_007_007	Extended MATPOWER case file generated from aggregated PyPSA generator and load data
%	Period: 7 	Weight: 14
%	Time step: 7

%%	MATPOWER Case Format : Version 2
mpc.version = '2';

%% system MVA base
mpc.baseMVA = 100;

%% Weight
mpc.weight = 14;

%% bus data
%	bus_i	type	Pd	Qd	Gs	Bs	area	Vm	Va	baseKV	zone	Vmax	Vmin
mpc.bus = [
	1	2	602.4294201145601	0.0	0.0	0.0	1	1.0	0.0	230.0	1	1.1	0.9;	%AL1 0
	2	2	3065.08102178591	0.0	0.0	0.0	2	1.0	0.0	230.0	1	1.1	0.9;	%AT1 0
	3	2	905.7911821109076	0.0	0.0	0.0	3	1.0	0.0	230.0	1	1.1	0.9;	%AT1 1
	4	2	1721.097650097734	0.0	0.0	0.0	4	1.0	0.0	230.0	1	1.1	0.9;	%AT1 2
	5	2	2526.91148019165	0.0	0.0	0.0	5	1.0	0.0	230.0	1	1.1	0.9;	%AT1 3
	6	2	1563.9533828962458	0.0	0.0	0.0	6	1.0	0.0	230.0	1	1.1	0.9;	%BA1 0
	7	2	6318.146646481352	0.0	0.0	0.0	7	1.0	0.0	230.0	1	1.1	0.9;	%BE1 0
	8	2	2860.5988303317604	0.0	0.0	0.0	8	1.0	0.0	230.0	1	1.1	0.9;	%BE1 1
	9	2	4670.709358328199	0.0	0.0	0.0	9	1.0	0.0	230.0	1	1.1	0.9;	%BG1 0
	10	2	905.4709710337705	0.0	0.0	0.0	10	1.0	0.0	230.0	1	1.1	0.9;	%CH1 0
	11	2	869.5677602080402	0.0	0.0	0.0	11	1.0	0.0	230.0	1	1.1	0.9;	%CH1 1
	12	2	1612.6452179590026	0.0	0.0	0.0	12	1.0	0.0	230.0	1	1.1	0.9;	%CH1 2
	13	2	2092.2370864038107	0.0	0.0	0.0	13	1.0	0.0	230.0	1	1.1	0.9;	%CH1 3
	14	2	1318.7295476738361	0.0	0.0	0.0	14	1.0	0.0	230.0	1	1.1	0.9;	%CZ1 0
	15	2	3422.7519898208543	0.0	0.0	0.0	15	1.0	0.0	230.0	1	1.1	0.9;	%CZ1 1
	16	2	2236.525755910174	0.0	0.0	0.0	16	1.0	0.0	230.0	1	1.1	0.9;	%CZ1 2
	17	2	2468.6291858915783	0.0	0.0	0.0	17	1.0	0.0	230.0	1	1.1	0.9;	%DE1 0
	18	2	1873.679244694219	0.0	0.0	0.0	18	1.0	0.0	230.0	1	1.1	0.9;	%DE1 1
	19	2	718.6490860052301	0.0	0.0	0.0	19	1.0	0.0	230.0	1	1.1	0.9;	%DE1 10
	20	2	478.1747628258907	0.0	0.0	0.0	20	1.0	0.0	230.0	1	1.1	0.9;	%DE1 11
	21	2	2461.6697435169935	0.0	0.0	0.0	21	1.0	0.0	230.0	1	1.1	0.9;	%DE1 12
	22	2	1925.408584118692	0.0	0.0	0.0	22	1.0	0.0	230.0	1	1.1	0.9;	%DE1 13
	23	2	368.5332107224858	0.0	0.0	0.0	23	1.0	0.0	230.0	1	1.1	0.9;	%DE1 14
	24	2	2181.028383944756	0.0	0.0	0.0	24	1.0	0.0	230.0	1	1.1	0.9;	%DE1 15
	25	2	952.6538166558865	0.0	0.0	0.0	25	1.0	0.0	230.0	1	1.1	0.9;	%DE1 16
	26	2	1454.6206832630637	0.0	0.0	0.0	26	1.0	0.0	230.0	1	1.1	0.9;	%DE1 17
	27	2	1163.0930544376693	0.0	0.0	0.0	27	1.0	0.0	230.0	1	1.1	0.9;	%DE1 18
	28	2	1743.2448442655589	0.0	0.0	0.0	28	1.0	0.0	230.0	1	1.1	0.9;	%DE1 19
	29	2	1776.397917481383	0.0	0.0	0.0	29	1.0	0.0	230.0	1	1.1	0.9;	%DE1 2
	30	2	2290.2787357121942	0.0	0.0	0.0	30	1.0	0.0	230.0	1	1.1	0.9;	%DE1 20
	31	2	1312.7950561957084	0.0	0.0	0.0	31	1.0	0.0	230.0	1	1.1	0.9;	%DE1 21
	32	2	1404.2673035065397	0.0	0.0	0.0	32	1.0	0.0	230.0	1	1.1	0.9;	%DE1 22
	33	2	2234.7517475190766	0.0	0.0	0.0	33	1.0	0.0	230.0	1	1.1	0.9;	%DE1 23
	34	2	346.78853579792417	0.0	0.0	0.0	34	1.0	0.0	230.0	1	1.1	0.9;	%DE1 24
	35	2	1116.2858248838422	0.0	0.0	0.0	35	1.0	0.0	230.0	1	1.1	0.9;	%DE1 25
	36	2	1425.3374880163449	0.0	0.0	0.0	36	1.0	0.0	230.0	1	1.1	0.9;	%DE1 26
	37	2	956.4265226419831	0.0	0.0	0.0	37	1.0	0.0	230.0	1	1.1	0.9;	%DE1 27
	38	2	2352.266972946687	0.0	0.0	0.0	38	1.0	0.0	230.0	1	1.1	0.9;	%DE1 28
	39	2	1460.6444653414762	0.0	0.0	0.0	39	1.0	0.0	230.0	1	1.1	0.9;	%DE1 29
	40	2	1375.6386304152757	0.0	0.0	0.0	40	1.0	0.0	230.0	1	1.1	0.9;	%DE1 3
	41	2	636.8469639673658	0.0	0.0	0.0	41	1.0	0.0	230.0	1	1.1	0.9;	%DE1 30
	42	2	566.9933870993228	0.0	0.0	0.0	42	1.0	0.0	230.0	1	1.1	0.9;	%DE1 31
	43	2	720.0784448041369	0.0	0.0	0.0	43	1.0	0.0	230.0	1	1.1	0.9;	%DE1 32
	44	2	1303.7289172651867	0.0	0.0	0.0	44	1.0	0.0	230.0	1	1.1	0.9;	%DE1 33
	45	2	663.0124594731133	0.0	0.0	0.0	45	1.0	0.0	230.0	1	1.1	0.9;	%DE1 34
	46	2	954.5439056776391	0.0	0.0	0.0	46	1.0	0.0	230.0	1	1.1	0.9;	%DE1 4
	47	2	1715.8445252954218	0.0	0.0	0.0	47	1.0	0.0	230.0	1	1.1	0.9;	%DE1 5
	48	2	1885.1923077952792	0.0	0.0	0.0	48	1.0	0.0	230.0	1	1.1	0.9;	%DE1 6
	49	2	1323.0165862410072	0.0	0.0	0.0	49	1.0	0.0	230.0	1	1.1	0.9;	%DE1 7
	50	2	3153.0312284154775	0.0	0.0	0.0	50	1.0	0.0	230.0	1	1.1	0.9;	%DE1 8
	51	2	1189.1791667494197	0.0	0.0	0.0	51	1.0	0.0	230.0	1	1.1	0.9;	%DE1 9
	52	2	2367.3073466907263	0.0	0.0	0.0	52	1.0	0.0	230.0	1	1.1	0.9;	%DK1 0
	53	2	1807.963685948928	0.0	0.0	0.0	53	1.0	0.0	230.0	1	1.1	0.9;	%DK2 0
	54	2	999.9505366244263	0.0	0.0	0.0	54	1.0	0.0	230.0	1	1.1	0.9;	%EE6 0
	55	2	23946.420815396537	0.0	0.0	0.0	55	1.0	0.0	230.0	1	1.1	0.9;	%ES1 0
	56	2	517.5910308052491	0.0	0.0	0.0	56	1.0	0.0	230.0	1	1.1	0.9;	%ES4 0
	57	2	10623.719949313801	0.0	0.0	0.0	57	1.0	0.0	230.0	1	1.1	0.9;	%FI2 0
	58	2	12694.80486977538	0.0	0.0	0.0	58	1.0	0.0	230.0	1	1.1	0.9;	%FR1 0
	59	2	18690.896638063943	0.0	0.0	0.0	59	1.0	0.0	230.0	1	1.1	0.9;	%FR1 1
	60	2	11063.356249129	0.0	0.0	0.0	60	1.0	0.0	230.0	1	1.1	0.9;	%FR1 2
	61	2	9524.086931579881	0.0	0.0	0.0	61	1.0	0.0	230.0	1	1.1	0.9;	%FR1 3
	62	2	7603.038743788577	0.0	0.0	0.0	62	1.0	0.0	230.0	1	1.1	0.9;	%FR1 4
	63	2	17470.93164911969	0.0	0.0	0.0	63	1.0	0.0	230.0	1	1.1	0.9;	%GB0 0
	64	2	15168.180452013263	0.0	0.0	0.0	64	1.0	0.0	230.0	1	1.1	0.9;	%GB0 1
	65	2	803.76661845467	0.0	0.0	0.0	65	1.0	0.0	230.0	1	1.1	0.9;	%GB5 0
	66	2	5490.406703235581	0.0	0.0	0.0	66	1.0	0.0	230.0	1	1.1	0.9;	%GR1 0
	67	2	1926.0976997178461	0.0	0.0	0.0	67	1.0	0.0	230.0	1	1.1	0.9;	%HR1 0
	68	2	4100.853472220321	0.0	0.0	0.0	68	1.0	0.0	230.0	1	1.1	0.9;	%HU1 0
	69	2	2488.3319026483823	0.0	0.0	0.0	69	1.0	0.0	230.0	1	1.1	0.9;	%IE5 0
	70	2	29728.631737278534	0.0	0.0	0.0	70	1.0	0.0	230.0	1	1.1	0.9;	%IT1 0
	71	2	1672.633937807646	0.0	0.0	0.0	71	1.0	0.0	230.0	1	1.1	0.9;	%IT3 0
	72	2	1319.998596129125	0.0	0.0	0.0	72	1.0	0.0	230.0	1	1.1	0.9;	%LT6 0
	73	2	653.184732516534	0.0	0.0	0.0	73	1.0	0.0	230.0	1	1.1	0.9;	%LU1 0
	74	2	941.5042441689276	0.0	0.0	0.0	74	1.0	0.0	230.0	1	1.1	0.9;	%LV6 0
	75	2	425.9562740575056	0.0	0.0	0.0	75	1.0	0.0	230.0	1	1.1	0.9;	%ME1 0
	76	2	1087.3116363043282	0.0	0.0	0.0	76	1.0	0.0	230.0	1	1.1	0.9;	%MK1 0
	77	2	4447.485634598256	0.0	0.0	0.0	77	1.0	0.0	230.0	1	1.1	0.9;	%NL1 0
	78	2	6090.717139602699	0.0	0.0	0.0	78	1.0	0.0	230.0	1	1.1	0.9;	%NL1 1
	79	2	2002.0487276396836	0.0	0.0	0.0	79	1.0	0.0	230.0	1	1.1	0.9;	%NL1 2
	80	2	15944.766449388128	0.0	0.0	0.0	80	1.0	0.0	230.0	1	1.1	0.9;	%NO2 0
	81	2	4670.21709172172	0.0	0.0	0.0	81	1.0	0.0	230.0	1	1.1	0.9;	%PL1 0
	82	2	2750.914011336297	0.0	0.0	0.0	82	1.0	0.0	230.0	1	1.1	0.9;	%PL1 1
	83	2	3779.6042208473687	0.0	0.0	0.0	83	1.0	0.0	230.0	1	1.1	0.9;	%PL1 2
	84	2	4217.100475332634	0.0	0.0	0.0	84	1.0	0.0	230.0	1	1.1	0.9;	%PL1 3
	85	2	4505.718780448036	0.0	0.0	0.0	85	1.0	0.0	230.0	1	1.1	0.9;	%PT1 0
	86	2	6073.969276901568	0.0	0.0	0.0	86	1.0	0.0	230.0	1	1.1	0.9;	%RO1 0
	87	2	5162.9055215180215	0.0	0.0	0.0	87	1.0	0.0	230.0	1	1.1	0.9;	%RS1 0
	88	2	17172.804322739572	0.0	0.0	0.0	88	1.0	0.0	230.0	1	1.1	0.9;	%SE2 0
	89	2	1454.7815001768388	0.0	0.0	0.0	89	1.0	0.0	230.0	1	1.1	0.9;	%SI1 0
	90	2	3124.3974928131065	0.0	0.0	0.0	90	1.0	0.0	230.0	1	1.1	0.9;	%SK1 0
];

%% generator data
%	bus	Pg	Qg	Qmax	Qmin	Vg	mBase	status	Pmax	Pmin	H	n0	nE	nE_max	P_b_nom	carrier
mpc.gen = [
	1	0.0	0.0	0.0	-0.0	1.0	100.0	1	224.0	78.4	5.0	0	0	5	224.0	0;	%AL1 0 CCGT
	1	0.0	0.0	0.0	-0.0	1.0	100.0	1	224.0	78.4	2.8	0	0	5	224.0	1;	%AL1 0 OCGT
	1	0.0	0.0	0.0	-0.0	1.0	100.0	1	0.19828688457015675	0.0	0.0	0	0	55	17.0	2;	%AL1 0 offwind
	1	0.0	0.0	0.0	-0.0	1.0	100.0	1	44.92727152904733	0.0	2.8	2	2	2	50.0	3;	%AL1 0 oil
	1	0.0	0.0	0.0	-0.0	1.0	100.0	1	0.2069792771018453	0.0	0.0	0	0	25	38.0	4;	%AL1 0 onwind
	1	0.0	0.0	0.0	-0.0	1.0	100.0	1	8.913209771487287	0.0	3.5	2	2	2	26.0	5;	%AL1 0 ror
	1	0.0	0.0	0.0	-0.0	1.0	100.0	1	2.1963772047712142	0.0	0.0	1	1	34	28.0	6;	%AL1 0 solar
	2	0.0	0.0	0.0	-0.0	1.0	100.0	1	214.74117647058824	78.4	5.0	17	17	67	224.0	0;	%AT1 0 CCGT
	2	0.0	0.0	0.0	-0.0	1.0	100.0	1	224.0	78.4	2.8	0	0	67	224.0	1;	%AT1 0 OCGT
	2	0.0	0.0	0.0	-0.0	1.0	100.0	1	17.715544642359294	0.0	0.0	49	49	390	38.0	4;	%AT1 0 onwind
	2	0.0	0.0	0.0	-0.0	1.0	100.0	1	9.379217108360358	0.0	3.5	44	44	44	26.0	5;	%AT1 0 ror
	2	0.0	0.0	0.0	-0.0	1.0	100.0	1	0.6661675565265573	0.0	0.0	28	28	529	28.0	6;	%AT1 0 solar
	3	0.0	0.0	0.0	-0.0	1.0	100.0	1	224.0	78.4	5.0	0	0	7	224.0	0;	%AT1 1 CCGT
	3	0.0	0.0	0.0	-0.0	1.0	100.0	1	224.0	78.4	2.8	0	0	7	224.0	1;	%AT1 1 OCGT
	3	0.0	0.0	0.0	-0.0	1.0	100.0	1	0.55415854140937	0.0	0.0	2	2	37	38.0	4;	%AT1 1 onwind
	3	0.0	0.0	0.0	-0.0	1.0	100.0	1	8.805581607731042	0.0	3.5	9	9	9	26.0	5;	%AT1 1 ror
	3	0.0	0.0	0.0	-0.0	1.0	100.0	1	0.0	0.0	0.0	10	10	50	28.0	6;	%AT1 1 solar
	4	0.0	0.0	0.0	-0.0	1.0	100.0	1	83.7	78.4	5.0	1	1	18	224.0	0;	%AT1 2 CCGT
	4	0.0	0.0	0.0	-0.0	1.0	100.0	1	224.0	78.4	2.8	0	0	18	224.0	1;	%AT1 2 OCGT
	4	0.0	0.0	0.0	-0.0	1.0	100.0	1	5.31220074390783	0.0	0.0	9	9	102	38.0	4;	%AT1 2 onwind
	4	0.0	0.0	0.0	-0.0	1.0	100.0	1	9.36663576449819	0.0	3.5	38	38	38	26.0	5;	%AT1 2 ror
	4	0.0	0.0	0.0	-0.0	1.0	100.0	1	0.1825819150880394	0.0	0.0	20	20	138	28.0	6;	%AT1 2 solar
	5	0.0	0.0	0.0	-0.0	1.0	100.0	1	206.33333333333334	78.4	5.0	3	3	43	224.0	0;	%AT1 3 CCGT
	5	0.0	0.0	0.0	-0.0	1.0	100.0	1	224.0	78.4	2.8	0	0	43	224.0	1;	%AT1 3 OCGT
	5	0.0	0.0	0.0	-0.0	1.0	100.0	1	9.65894711455727	0.0	0.0	28	28	249	38.0	4;	%AT1 3 onwind
	5	0.0	0.0	0.0	-0.0	1.0	100.0	1	9.487260885933223	0.0	3.5	94	94	94	26.0	5;	%AT1 3 ror
	5	0.0	0.0	0.0	-0.0	1.0	100.0	1	0.2648869486598984	0.0	0.0	23	23	338	28.0	6;	%AT1 3 solar
	6	0.0	0.0	0.0	-0.0	1.0	100.0	1	224.0	78.4	5.0	0	0	11	224.0	0;	%BA1 0 CCGT
	6	0.0	0.0	0.0	-0.0	1.0	100.0	1	224.0	78.4	2.8	0	0	11	224.0	1;	%BA1 0 OCGT
	6	0.0	0.0	0.0	-0.0	1.0	100.0	1	209.5	110.0	3.0	4	4	4	275.0	7;	%BA1 0 lignite
	6	0.0	0.0	0.0	-0.0	1.0	100.0	1	0.32528462356893134	0.0	0.0	3	3	61	38.0	4;	%BA1 0 onwind
	6	0.0	0.0	0.0	-0.0	1.0	100.0	1	1.6180932904608745	0.0	0.0	2	2	82	28.0	6;	%BA1 0 solar
	7	0.0	0.0	0.0	-0.0	1.0	100.0	1	218.17368421052632	78.4	5.0	19	19	100	224.0	0;	%BE1 0 CCGT
	7	0.0	0.0	0.0	-0.0	1.0	100.0	1	224.0	78.4	2.8	0	0	100	224.0	1;	%BE1 0 OCGT
	7	0.0	0.0	0.0	-0.0	1.0	100.0	1	9.925925925925926	2.0436	2.8	27	27	27	10.0	8;	%BE1 0 biomass
	7	0.0	0.0	0.0	-0.0	1.0	100.0	1	29.914090731989255	0.0	0.0	137	137	1308	17.0	2;	%BE1 0 offwind
	7	0.0	0.0	0.0	-0.0	1.0	100.0	1	28.389558916576725	0.0	0.0	28	28	585	38.0	4;	%BE1 0 onwind
	7	0.0	0.0	0.0	-0.0	1.0	100.0	1	0.0	0.0	0.0	120	120	794	28.0	6;	%BE1 0 solar
	8	0.0	0.0	0.0	-0.0	1.0	100.0	1	155.0	78.4	5.0	3	3	38	224.0	0;	%BE1 1 CCGT
	8	0.0	0.0	0.0	-0.0	1.0	100.0	1	224.0	78.4	2.8	0	0	38	224.0	1;	%BE1 1 OCGT
	8	0.0	0.0	0.0	-0.0	1.0	100.0	1	28.093908618110408	0.0	0.0	38	38	224	38.0	4;	%BE1 1 onwind
	8	0.0	0.0	0.0	-0.0	1.0	100.0	1	13.559255801211698	0.0	3.5	4	4	4	26.0	5;	%BE1 1 ror
	8	0.0	0.0	0.0	-0.0	1.0	100.0	1	0.0	0.0	0.0	82	82	304	28.0	6;	%BE1 1 solar
	9	0.0	0.0	0.0	-0.0	1.0	100.0	1	224.0	78.4	5.0	0	0	50	224.0	0;	%BG1 0 CCGT
	9	0.0	0.0	0.0	-0.0	1.0	100.0	1	224.0	78.4	2.8	0	0	50	224.0	1;	%BG1 0 OCGT
	9	0.0	0.0	0.0	-0.0	1.0	100.0	1	160.41703044199232	89.375	3.0	1	1	1	275.0	9;	%BG1 0 coal
	9	0.0	0.0	0.0	-0.0	1.0	100.0	1	242.52278758367152	110.0	3.0	6	6	6	275.0	7;	%BG1 0 lignite
	9	0.0	0.0	0.0	-0.0	1.0	100.0	1	693.3333333333334	500.0	5.5	3	3	3	1000.0	10;	%BG1 0 nuclear
	9	0.0	0.0	0.0	-0.0	1.0	100.0	1	6.995040614118418	0.0	0.0	0	0	657	17.0	2;	%BG1 0 offwind
	9	0.0	0.0	0.0	-0.0	1.0	100.0	1	2.785762279269148	0.0	0.0	19	19	294	38.0	4;	%BG1 0 onwind
	9	0.0	0.0	0.0	-0.0	1.0	100.0	1	3.262191331829232	0.0	3.5	5	5	5	26.0	5;	%BG1 0 ror
	9	0.0	0.0	0.0	-0.0	1.0	100.0	1	4.29716357102973	0.0	0.0	39	39	399	28.0	6;	%BG1 0 solar
	10	0.0	0.0	0.0	-0.0	1.0	100.0	1	224.0	78.4	5.0	0	0	12	224.0	0;	%CH1 0 CCGT
	10	0.0	0.0	0.0	-0.0	1.0	100.0	1	224.0	78.4	2.8	0	0	12	224.0	1;	%CH1 0 OCGT
	10	0.0	0.0	0.0	-0.0	1.0	100.0	1	8.795428571428571	2.0436	2.8	7	7	7	10.0	8;	%CH1 0 biomass
	10	0.0	0.0	0.0	-0.0	1.0	100.0	1	4.846735178103927	0.0	0.0	1	1	70	38.0	4;	%CH1 0 onwind
	10	0.0	0.0	0.0	-0.0	1.0	100.0	1	3.912479027198723	0.0	3.5	24	24	24	26.0	5;	%CH1 0 ror
	10	0.0	0.0	0.0	-0.0	1.0	100.0	1	0.0	0.0	0.0	23	23	94	28.0	6;	%CH1 0 solar
	11	0.0	0.0	0.0	-0.0	1.0	100.0	1	224.0	78.4	5.0	0	0	23	224.0	0;	%CH1 1 CCGT
	11	0.0	0.0	0.0	-0.0	1.0	100.0	1	224.0	78.4	2.8	0	0	23	224.0	1;	%CH1 1 OCGT
	11	0.0	0.0	0.0	-0.0	1.0	100.0	1	9.692485714285713	2.0436	2.8	7	7	7	10.0	8;	%CH1 1 biomass
	11	0.0	0.0	0.0	-0.0	1.0	100.0	1	0.7544227365890581	0.0	0.0	1	1	132	38.0	4;	%CH1 1 onwind
	11	0.0	0.0	0.0	-0.0	1.0	100.0	1	4.4709147673898695	0.0	3.5	66	66	66	26.0	5;	%CH1 1 ror
	11	0.0	0.0	0.0	-0.0	1.0	100.0	1	0.0	0.0	0.0	25	25	179	28.0	6;	%CH1 1 solar
	12	0.0	0.0	0.0	-0.0	1.0	100.0	1	224.0	78.4	5.0	0	0	45	224.0	0;	%CH1 2 CCGT
	12	0.0	0.0	0.0	-0.0	1.0	100.0	1	224.0	78.4	2.8	0	0	45	224.0	1;	%CH1 2 OCGT
	12	0.0	0.0	0.0	-0.0	1.0	100.0	1	9.847608333333332	2.0436	2.8	12	12	12	10.0	8;	%CH1 2 biomass
	12	0.0	0.0	0.0	-0.0	1.0	100.0	1	990.0	500.0	5.5	3	3	3	1000.0	10;	%CH1 2 nuclear
	12	0.0	0.0	0.0	-0.0	1.0	100.0	1	4.138435134221304	0.0	0.0	1	1	264	38.0	4;	%CH1 2 onwind
	12	0.0	0.0	0.0	-0.0	1.0	100.0	1	4.048767326722671	0.0	3.5	50	50	50	26.0	5;	%CH1 2 ror
	12	0.0	0.0	0.0	-0.0	1.0	100.0	1	0.0	0.0	0.0	22	22	358	28.0	6;	%CH1 2 solar
	13	0.0	0.0	0.0	-0.0	1.0	100.0	1	224.0	78.4	5.0	0	0	18	224.0	0;	%CH1 3 CCGT
	13	0.0	0.0	0.0	-0.0	1.0	100.0	1	224.0	78.4	2.8	0	0	18	224.0	1;	%CH1 3 OCGT
	13	0.0	0.0	0.0	-0.0	1.0	100.0	1	9.7455	2.0436	2.8	9	9	9	10.0	8;	%CH1 3 biomass
	13	0.0	0.0	0.0	-0.0	1.0	100.0	1	0.050171055560773524	0.0	0.0	1	1	104	38.0	4;	%CH1 3 onwind
	13	0.0	0.0	0.0	-0.0	1.0	100.0	1	4.006422274239128	0.0	3.5	32	32	32	26.0	5;	%CH1 3 ror
	13	0.0	0.0	0.0	-0.0	1.0	100.0	1	0.0	0.0	0.0	37	37	141	28.0	6;	%CH1 3 solar
	14	0.0	0.0	0.0	-0.0	1.0	100.0	1	78.4	78.4	5.0	1	1	10	224.0	0;	%CZ1 0 CCGT
	14	0.0	0.0	0.0	-0.0	1.0	100.0	1	224.0	78.4	2.8	0	0	10	224.0	1;	%CZ1 0 OCGT
	14	0.0	0.0	0.0	-0.0	1.0	100.0	1	11.341029816291307	0.0	0.0	2	2	55	38.0	4;	%CZ1 0 onwind
	14	0.0	0.0	0.0	-0.0	1.0	100.0	1	0.599255804846537	0.0	0.0	12	12	75	28.0	6;	%CZ1 0 solar
	15	0.0	0.0	0.0	-0.0	1.0	100.0	1	185.6	78.4	5.0	5	5	62	224.0	0;	%CZ1 1 CCGT
	15	0.0	0.0	0.0	-0.0	1.0	100.0	1	224.0	78.4	2.8	0	0	62	224.0	1;	%CZ1 1 OCGT
	15	0.0	0.0	0.0	-0.0	1.0	100.0	1	262.44100892134185	110.0	3.0	10	10	10	275.0	7;	%CZ1 1 lignite
	15	0.0	0.0	0.0	-0.0	1.0	100.0	1	750.0	500.0	5.5	3	3	3	1000.0	10;	%CZ1 1 nuclear
	15	0.0	0.0	0.0	-0.0	1.0	100.0	1	13.26938676812144	0.0	0.0	5	5	365	38.0	4;	%CZ1 1 onwind
	15	0.0	0.0	0.0	-0.0	1.0	100.0	1	4.332370570227815	0.0	3.5	2	2	2	26.0	5;	%CZ1 1 ror
	15	0.0	0.0	0.0	-0.0	1.0	100.0	1	0.1818962091920764	0.0	0.0	33	33	495	28.0	6;	%CZ1 1 solar
	16	0.0	0.0	0.0	-0.0	1.0	100.0	1	224.0	78.4	5.0	0	0	36	224.0	0;	%CZ1 2 CCGT
	16	0.0	0.0	0.0	-0.0	1.0	100.0	1	224.0	78.4	2.8	0	0	36	224.0	1;	%CZ1 2 OCGT
	16	0.0	0.0	0.0	-0.0	1.0	100.0	1	251.74418635111147	110.0	3.0	4	4	4	275.0	7;	%CZ1 2 lignite
	16	0.0	0.0	0.0	-0.0	1.0	100.0	1	680.0	500.0	5.5	3	3	3	1000.0	10;	%CZ1 2 nuclear
	16	0.0	0.0	0.0	-0.0	1.0	100.0	1	17.233070675283727	0.0	0.0	4	4	212	38.0	4;	%CZ1 2 onwind
	16	0.0	0.0	0.0	-0.0	1.0	100.0	1	0.2631252239378355	0.0	0.0	30	30	287	28.0	6;	%CZ1 2 solar
	17	0.0	0.0	0.0	-0.0	1.0	100.0	1	213.15152631578948	78.4	5.0	19	19	157	224.0	0;	%DE1 0 CCGT
	17	0.0	0.0	0.0	-0.0	1.0	100.0	1	224.0	78.4	2.8	0	0	157	224.0	1;	%DE1 0 OCGT
	17	0.0	0.0	0.0	-0.0	1.0	100.0	1	9.355047777777777	2.0436	2.8	9	9	9	10.0	8;	%DE1 0 biomass
	17	0.0	0.0	0.0	-0.0	1.0	100.0	1	269.05434856878185	110.0	3.0	42	42	42	275.0	7;	%DE1 0 lignite
	17	0.0	0.0	0.0	-0.0	1.0	100.0	1	48.55	0.0	2.8	2	2	2	50.0	3;	%DE1 0 oil
	17	0.0	0.0	0.0	-0.0	1.0	100.0	1	24.305908134368234	0.0	0.0	18	18	922	38.0	4;	%DE1 0 onwind
	17	0.0	0.0	0.0	-0.0	1.0	100.0	1	13.293150239284977	0.0	3.5	1	1	1	26.0	5;	%DE1 0 ror
	17	0.0	0.0	0.0	-0.0	1.0	100.0	1	0.0	0.0	0.0	46	46	1251	28.0	6;	%DE1 0 solar
	18	0.0	0.0	0.0	-0.0	1.0	100.0	1	128.3	78.4	5.0	2	2	33	224.0	0;	%DE1 1 CCGT
	18	0.0	0.0	0.0	-0.0	1.0	100.0	1	224.0	78.4	2.8	0	0	33	224.0	1;	%DE1 1 OCGT
	18	0.0	0.0	0.0	-0.0	1.0	100.0	1	9.9771036	2.0436	2.8	25	25	25	10.0	8;	%DE1 1 biomass
	18	0.0	0.0	0.0	-0.0	1.0	100.0	1	14.571562132224324	0.0	0.0	41	41	190	38.0	4;	%DE1 1 onwind
	18	0.0	0.0	0.0	-0.0	1.0	100.0	1	14.046962855181	0.0	3.5	2	2	2	26.0	5;	%DE1 1 ror
	18	0.0	0.0	0.0	-0.0	1.0	100.0	1	0.0	0.0	0.0	55	55	258	28.0	6;	%DE1 1 solar
	19	0.0	0.0	0.0	-0.0	1.0	100.0	1	211.56666666666666	78.4	5.0	9	9	111	224.0	0;	%DE1 10 CCGT
	19	0.0	0.0	0.0	-0.0	1.0	100.0	1	224.0	78.4	2.8	0	0	111	224.0	1;	%DE1 10 OCGT
	19	0.0	0.0	0.0	-0.0	1.0	100.0	1	9.826045714285716	2.0436	2.8	35	35	35	10.0	8;	%DE1 10 biomass
	19	0.0	0.0	0.0	-0.0	1.0	100.0	1	30.06638145794768	0.0	0.0	370	370	1459	17.0	2;	%DE1 10 offwind
	19	0.0	0.0	0.0	-0.0	1.0	100.0	1	27.49935701581531	0.0	0.0	60	60	653	38.0	4;	%DE1 10 onwind
	19	0.0	0.0	0.0	-0.0	1.0	100.0	1	0.0	0.0	0.0	58	58	886	28.0	6;	%DE1 10 solar
	20	0.0	0.0	0.0	-0.0	1.0	100.0	1	197.88333333333333	78.4	5.0	6	6	24	224.0	0;	%DE1 11 CCGT
	20	0.0	0.0	0.0	-0.0	1.0	100.0	1	224.0	78.4	2.8	0	0	24	224.0	1;	%DE1 11 OCGT
	20	0.0	0.0	0.0	-0.0	1.0	100.0	1	9.57325	2.0436	2.8	4	4	4	10.0	8;	%DE1 11 biomass
	20	0.0	0.0	0.0	-0.0	1.0	100.0	1	19.24396738540039	0.0	0.0	19	19	137	38.0	4;	%DE1 11 onwind
	20	0.0	0.0	0.0	-0.0	1.0	100.0	1	2.034158738433836	0.0	3.5	1	1	1	26.0	5;	%DE1 11 ror
	20	0.0	0.0	0.0	-0.0	1.0	100.0	1	0.0	0.0	0.0	24	24	186	28.0	6;	%DE1 11 solar
	21	0.0	0.0	0.0	-0.0	1.0	100.0	1	212.84425	78.4	5.0	2	2	45	224.0	0;	%DE1 12 CCGT
	21	0.0	0.0	0.0	-0.0	1.0	100.0	1	78.4	78.4	2.8	1	1	45	224.0	1;	%DE1 12 OCGT
	21	0.0	0.0	0.0	-0.0	1.0	100.0	1	9.737791304347825	2.0436	2.8	23	23	23	10.0	8;	%DE1 12 biomass
	21	0.0	0.0	0.0	-0.0	1.0	100.0	1	253.00584193683684	89.375	3.0	7	7	7	275.0	9;	%DE1 12 coal
	21	0.0	0.0	0.0	-0.0	1.0	100.0	1	13.194491563652306	0.0	0.0	24	24	261	38.0	4;	%DE1 12 onwind
	21	0.0	0.0	0.0	-0.0	1.0	100.0	1	11.134774149414428	0.0	3.5	1	1	1	26.0	5;	%DE1 12 ror
	21	0.0	0.0	0.0	-0.0	1.0	100.0	1	0.0	0.0	0.0	58	58	354	28.0	6;	%DE1 12 solar
	22	0.0	0.0	0.0	-0.0	1.0	100.0	1	204.07599999999996	78.4	5.0	5	5	81	224.0	0;	%DE1 13 CCGT
	22	0.0	0.0	0.0	-0.0	1.0	100.0	1	224.0	78.4	2.8	0	0	81	224.0	1;	%DE1 13 OCGT
	22	0.0	0.0	0.0	-0.0	1.0	100.0	1	9.839105918367348	2.0436	2.8	49	49	49	10.0	8;	%DE1 13 biomass
	22	0.0	0.0	0.0	-0.0	1.0	100.0	1	244.3132934892412	89.375	3.0	3	3	3	275.0	9;	%DE1 13 coal
	22	0.0	0.0	0.0	-0.0	1.0	100.0	1	13.136606253445642	0.0	0.0	6	6	1064	17.0	2;	%DE1 13 offwind
	22	0.0	0.0	0.0	-0.0	1.0	100.0	1	24.315893729505195	0.0	0.0	100	100	476	38.0	4;	%DE1 13 onwind
	22	0.0	0.0	0.0	-0.0	1.0	100.0	1	8.482801815709763	0.0	3.5	1	1	1	26.0	5;	%DE1 13 ror
	22	0.0	0.0	0.0	-0.0	1.0	100.0	1	0.0	0.0	0.0	104	104	646	28.0	6;	%DE1 13 solar
	23	0.0	0.0	0.0	-0.0	1.0	100.0	1	224.0	78.4	5.0	0	0	14	224.0	0;	%DE1 14 CCGT
	23	0.0	0.0	0.0	-0.0	1.0	100.0	1	224.0	78.4	2.8	0	0	14	224.0	1;	%DE1 14 OCGT
	23	0.0	0.0	0.0	-0.0	1.0	100.0	1	8.88375	2.0436	2.8	5	5	5	10.0	8;	%DE1 14 biomass
	23	0.0	0.0	0.0	-0.0	1.0	100.0	1	24.000645859123466	0.0	0.0	25	25	80	38.0	4;	%DE1 14 onwind
	23	0.0	0.0	0.0	-0.0	1.0	100.0	1	1.8422246367450492	0.0	3.5	1	1	1	26.0	5;	%DE1 14 ror
	23	0.0	0.0	0.0	-0.0	1.0	100.0	1	0.0	0.0	0.0	20	20	109	28.0	6;	%DE1 14 solar
	24	0.0	0.0	0.0	-0.0	1.0	100.0	1	208.4628571428571	78.4	5.0	7	7	53	224.0	0;	%DE1 15 CCGT
	24	0.0	0.0	0.0	-0.0	1.0	100.0	1	224.0	78.4	2.8	0	0	53	224.0	1;	%DE1 15 OCGT
	24	0.0	0.0	0.0	-0.0	1.0	100.0	1	9.874929523809524	2.0436	2.8	21	21	21	10.0	8;	%DE1 15 biomass
	24	0.0	0.0	0.0	-0.0	1.0	100.0	1	251.99610146060095	89.375	3.0	3	3	3	275.0	9;	%DE1 15 coal
	24	0.0	0.0	0.0	-0.0	1.0	100.0	1	25.11173729515326	0.0	0.0	48	48	307	38.0	4;	%DE1 15 onwind
	24	0.0	0.0	0.0	-0.0	1.0	100.0	1	21.67677182164439	0.0	3.5	4	4	4	26.0	5;	%DE1 15 ror
	24	0.0	0.0	0.0	-0.0	1.0	100.0	1	0.0	0.0	0.0	53	53	417	28.0	6;	%DE1 15 solar
	25	0.0	0.0	0.0	-0.0	1.0	100.0	1	78.4	78.4	5.0	1	1	20	224.0	0;	%DE1 16 CCGT
	25	0.0	0.0	0.0	-0.0	1.0	100.0	1	224.0	78.4	2.8	0	0	20	224.0	1;	%DE1 16 OCGT
	25	0.0	0.0	0.0	-0.0	1.0	100.0	1	9.967404615384615	2.0436	2.8	13	13	13	10.0	8;	%DE1 16 biomass
	25	0.0	0.0	0.0	-0.0	1.0	100.0	1	12.630387908566458	0.0	0.0	29	29	115	38.0	4;	%DE1 16 onwind
	25	0.0	0.0	0.0	-0.0	1.0	100.0	1	12.850159477797911	0.0	3.5	2	2	2	26.0	5;	%DE1 16 ror
	25	0.0	0.0	0.0	-0.0	1.0	100.0	1	0.0	0.0	0.0	34	34	156	28.0	6;	%DE1 16 solar
	26	0.0	0.0	0.0	-0.0	1.0	100.0	1	176.9	78.4	5.0	2	2	34	224.0	0;	%DE1 17 CCGT
	26	0.0	0.0	0.0	-0.0	1.0	100.0	1	224.0	78.4	2.8	0	0	34	224.0	1;	%DE1 17 OCGT
	26	0.0	0.0	0.0	-0.0	1.0	100.0	1	9.906166666666667	2.0436	2.8	21	21	21	10.0	8;	%DE1 17 biomass
	26	0.0	0.0	0.0	-0.0	1.0	100.0	1	110.0	110.0	3.0	1	1	1	275.0	7;	%DE1 17 lignite
	26	0.0	0.0	0.0	-0.0	1.0	100.0	1	19.723354539647513	0.0	0.0	43	43	197	38.0	4;	%DE1 17 onwind
	26	0.0	0.0	0.0	-0.0	1.0	100.0	1	6.9843620016413865	0.0	3.5	1	1	1	26.0	5;	%DE1 17 ror
	26	0.0	0.0	0.0	-0.0	1.0	100.0	1	0.0	0.0	0.0	55	55	267	28.0	6;	%DE1 17 solar
	27	0.0	0.0	0.0	-0.0	1.0	100.0	1	78.4	78.4	5.0	1	1	19	224.0	0;	%DE1 18 CCGT
	27	0.0	0.0	0.0	-0.0	1.0	100.0	1	224.0	78.4	2.8	0	0	19	224.0	1;	%DE1 18 OCGT
	27	0.0	0.0	0.0	-0.0	1.0	100.0	1	9.92174923076923	2.0436	2.8	13	13	13	10.0	8;	%DE1 18 biomass
	27	0.0	0.0	0.0	-0.0	1.0	100.0	1	3.3001643458312317	0.0	0.0	13	13	108	38.0	4;	%DE1 18 onwind
	27	0.0	0.0	0.0	-0.0	1.0	100.0	1	14.899830658924207	0.0	3.5	19	19	19	26.0	5;	%DE1 18 ror
	27	0.0	0.0	0.0	-0.0	1.0	100.0	1	0.0	0.0	0.0	32	32	147	28.0	6;	%DE1 18 solar
	28	0.0	0.0	0.0	-0.0	1.0	100.0	1	170.7	78.4	5.0	1	1	26	224.0	0;	%DE1 19 CCGT
	28	0.0	0.0	0.0	-0.0	1.0	100.0	1	224.0	78.4	2.8	0	0	26	224.0	1;	%DE1 19 OCGT
	28	0.0	0.0	0.0	-0.0	1.0	100.0	1	9.65496888888889	2.0436	2.8	27	27	27	10.0	8;	%DE1 19 biomass
	28	0.0	0.0	0.0	-0.0	1.0	100.0	1	6.747643486804901	0.0	0.0	23	23	153	38.0	4;	%DE1 19 onwind
	28	0.0	0.0	0.0	-0.0	1.0	100.0	1	19.530151695502287	0.0	3.5	8	8	8	26.0	5;	%DE1 19 ror
	28	0.0	0.0	0.0	-0.0	1.0	100.0	1	0.0	0.0	0.0	52	52	208	28.0	6;	%DE1 19 solar
	29	0.0	0.0	0.0	-0.0	1.0	100.0	1	127.0	78.4	5.0	1	1	62	224.0	0;	%DE1 2 CCGT
	29	0.0	0.0	0.0	-0.0	1.0	100.0	1	224.0	78.4	2.8	0	0	62	224.0	1;	%DE1 2 OCGT
	29	0.0	0.0	0.0	-0.0	1.0	100.0	1	9.838286904761905	2.0436	2.8	42	42	42	10.0	8;	%DE1 2 biomass
	29	0.0	0.0	0.0	-0.0	1.0	100.0	1	228.17939674938563	89.375	3.0	2	2	2	275.0	9;	%DE1 2 coal
	29	0.0	0.0	0.0	-0.0	1.0	100.0	1	14.35467227741633	0.0	0.0	8	8	810	17.0	2;	%DE1 2 offwind
	29	0.0	0.0	0.0	-0.0	1.0	100.0	1	26.78285092329578	0.0	0.0	89	89	363	38.0	4;	%DE1 2 onwind
	29	0.0	0.0	0.0	-0.0	1.0	100.0	1	0.09425335350788626	0.0	3.5	1	1	1	26.0	5;	%DE1 2 ror
	29	0.0	0.0	0.0	-0.0	1.0	100.0	1	0.0	0.0	0.0	86	86	492	28.0	6;	%DE1 2 solar
	30	0.0	0.0	0.0	-0.0	1.0	100.0	1	203.95499999999998	78.4	5.0	2	2	59	224.0	0;	%DE1 20 CCGT
	30	0.0	0.0	0.0	-0.0	1.0	100.0	1	224.0	78.4	2.8	0	0	59	224.0	1;	%DE1 20 OCGT
	30	0.0	0.0	0.0	-0.0	1.0	100.0	1	9.855548571428573	2.0436	2.8	35	35	35	10.0	8;	%DE1 20 biomass
	30	0.0	0.0	0.0	-0.0	1.0	100.0	1	174.24608479043997	89.375	3.0	2	2	2	275.0	9;	%DE1 20 coal
	30	0.0	0.0	0.0	-0.0	1.0	100.0	1	21.877486016216952	0.0	0.0	72	72	345	38.0	4;	%DE1 20 onwind
	30	0.0	0.0	0.0	-0.0	1.0	100.0	1	19.64042811910651	0.0	3.5	2	2	2	26.0	5;	%DE1 20 ror
	30	0.0	0.0	0.0	-0.0	1.0	100.0	1	0.0	0.0	0.0	96	96	468	28.0	6;	%DE1 20 solar
	31	0.0	0.0	0.0	-0.0	1.0	100.0	1	164.84	78.4	5.0	3	3	107	224.0	0;	%DE1 21 CCGT
	31	0.0	0.0	0.0	-0.0	1.0	100.0	1	224.0	78.4	2.8	0	0	107	224.0	1;	%DE1 21 OCGT
	31	0.0	0.0	0.0	-0.0	1.0	100.0	1	9.934234782608694	2.0436	2.8	23	23	23	10.0	8;	%DE1 21 biomass
	31	0.0	0.0	0.0	-0.0	1.0	100.0	1	272.6583187556654	110.0	3.0	25	25	25	275.0	7;	%DE1 21 lignite
	31	0.0	0.0	0.0	-0.0	1.0	100.0	1	24.59648695380784	0.0	0.0	61	61	629	38.0	4;	%DE1 21 onwind
	31	0.0	0.0	0.0	-0.0	1.0	100.0	1	16.9476098093862	0.0	3.5	2	2	2	26.0	5;	%DE1 21 ror
	31	0.0	0.0	0.0	-0.0	1.0	100.0	1	0.0	0.0	0.0	74	74	853	28.0	6;	%DE1 21 solar
	32	0.0	0.0	0.0	-0.0	1.0	100.0	1	219.24333333333334	78.4	5.0	6	6	20	224.0	0;	%DE1 22 CCGT
	32	0.0	0.0	0.0	-0.0	1.0	100.0	1	224.0	78.4	2.8	0	0	20	224.0	1;	%DE1 22 OCGT
	32	0.0	0.0	0.0	-0.0	1.0	100.0	1	9.921282	2.0436	2.8	10	10	10	10.0	8;	%DE1 22 biomass
	32	0.0	0.0	0.0	-0.0	1.0	100.0	1	13.948298965478283	0.0	0.0	5	5	115	38.0	4;	%DE1 22 onwind
	32	0.0	0.0	0.0	-0.0	1.0	100.0	1	0.6023646137822185	0.0	3.5	1	1	1	26.0	5;	%DE1 22 ror
...
];

%% generator cost data
%	2	startup	shutdown	n	c(n-1)	...	c0	investment
mpc.gencost = [
	2	106618.59310344831	42647.437241379324	3	0.0	543.9724137931036	0.0	0.0	35451.022724123985;	%AL1 0 CCGT
	2	146870.9268292683	58748.37073170733	3	0.0	749.3414634146343	0.0	0.0	16143.756231897736;	%AL1 0 OCGT
	2	0.0	0.0	3	0.0	0.21	0.0	0.0	5024.939237061826;	%AL1 0 offwind
	2	0.0	0.0	3	0.0	2084.0	0.0	0.0	3026.206071310709;	%AL1 0 oil
	2	0.0	0.0	3	0.0	0.21	0.0	0.0	5835.353016737678;	%AL1 0 onwind
	2	0.0	0.0	3	0.0	0.0	0.0	0.0	12430.027611214562;	%AL1 0 ror
	2	0.0	0.0	3	0.0	0.13999999999999999	0.0	0.0	1593.1520465264089;	%AL1 0 solar
	2	106176.11531034567	42470.44612413827	3	0.0	541.7148740323759	0.0	0.0	35451.022724123985;	%AT1 0 CCGT
	2	146870.9268292683	58748.37073170733	3	0.0	749.3414634146342	0.0	0.0	16143.756231897733;	%AT1 0 OCGT
	2	0.0	0.0	3	0.0	0.21	0.0	0.0	5835.353016737678;	%AT1 0 onwind
	2	0.0	0.0	3	0.0	0.0	0.0	0.0	12430.027611214562;	%AT1 0 ror
	2	0.0	0.0	3	0.0	0.14	0.0	0.0	1593.152046526409;	%AT1 0 solar
	2	106618.59310344831	42647.437241379324	3	0.0	543.9724137931036	0.0	0.0	35451.022724123985;	%AT1 1 CCGT
	2	146870.9268292683	58748.37073170733	3	0.0	749.3414634146343	0.0	0.0	16143.756231897736;	%AT1 1 OCGT
	2	0.0	0.0	3	0.0	0.20999999999999996	0.0	0.0	5835.353016737678;	%AT1 1 onwind
	2	0.0	0.0	3	0.0	0.0	0.0	0.0	12430.027611214562;	%AT1 1 ror
	2	0.0	0.0	3	0.0	0.14	0.0	0.0	1593.1520465264089;	%AT1 1 solar
	2	106618.59310344831	42647.437241379324	3	0.0	543.9724137931036	0.0	0.0	35451.022724123985;	%AT1 2 CCGT
	2	146870.9268292683	58748.37073170733	3	0.0	749.3414634146343	0.0	0.0	16143.756231897736;	%AT1 2 OCGT
	2	0.0	0.0	3	0.0	0.20999999999999994	0.0	0.0	5835.3530167376775;	%AT1 2 onwind
	2	0.0	0.0	3	0.0	0.0	0.0	0.0	12430.027611214562;	%AT1 2 ror
	2	0.0	0.0	3	0.0	0.14	0.0	0.0	1593.152046526409;	%AT1 2 solar
	2	105577.0685766999	42230.82743067996	3	0.0	538.658513146428	0.0	0.0	35451.022724123985;	%AT1 3 CCGT
	2	146870.9268292683	58748.37073170733	3	0.0	749.3414634146343	0.0	0.0	16143.756231897736;	%AT1 3 OCGT
	2	0.0	0.0	3	0.0	0.21	0.0	0.0	5835.353016737678;	%AT1 3 onwind
	2	0.0	0.0	3	0.0	0.0	0.0	0.0	12430.027611214562;	%AT1 3 ror
	2	0.0	0.0	3	0.0	0.14	0.0	0.0	1593.152046526409;	%AT1 3 solar
	2	106618.59310344831	42647.437241379324	3	0.0	543.9724137931036	0.0	0.0	35451.022724123985;	%BA1 0 CCGT
	2	146870.9268292683	58748.37073170733	3	0.0	749.3414634146343	0.0	0.0	16143.756231897736;	%BA1 0 OCGT
	2	47308.33333333333	18923.333333333332	3	0.0	172.03030303030303	0.0	0.0	153813.89628709477;	%BA1 0 lignite
	2	0.0	0.0	3	0.0	0.21	0.0	0.0	5835.353016737678;	%BA1 0 onwind
	2	0.0	0.0	3	0.0	0.14	0.0	0.0	1593.1520465264093;	%BA1 0 solar
	2	128231.11542608576	51292.446170434305	3	0.0	654.2403848269681	0.0	0.0	35451.02272412398;	%BE1 0 CCGT
	2	146870.9268292683	58748.37073170733	3	0.0	749.3414634146343	0.0	0.0	16143.756231897736;	%BE1 0 OCGT
	2	1065.28085106383	426.11234042553195	3	0.0	208.51063829787236	0.0	0.0	4444.249902950484;	%BE1 0 biomass
	2	0.0	0.0	3	0.0	0.21000000000000002	0.0	0.0	5211.300485499519;	%BE1 0 offwind
	2	0.0	0.0	3	0.0	0.21000000000000002	0.0	0.0	5835.353016737679;	%BE1 0 onwind
	2	0.0	0.0	3	0.0	0.14	0.0	0.0	1593.152046526409;	%BE1 0 solar
	2	106618.5931034483	42647.43724137932	3	0.0	543.9724137931034	0.0	0.0	35451.02272412398;	%BE1 1 CCGT
	2	146870.9268292683	58748.37073170733	3	0.0	749.3414634146342	0.0	0.0	16143.756231897733;	%BE1 1 OCGT
	2	0.0	0.0	3	0.0	0.20999999999999996	0.0	0.0	5835.353016737678;	%BE1 1 onwind
	2	0.0	0.0	3	0.0	0.0	0.0	0.0	12430.027611214562;	%BE1 1 ror
	2	0.0	0.0	3	0.0	0.14	0.0	0.0	1593.152046526409;	%BE1 1 solar
	2	106618.59310344831	42647.437241379324	3	0.0	543.9724137931036	0.0	0.0	35451.02272412398;	%BG1 0 CCGT
	2	146870.9268292683	58748.37073170733	3	0.0	749.3414634146342	0.0	0.0	16143.756231897736;	%BG1 0 OCGT
	2	88203.64583333333	35281.45833333333	3	0.0	394.75757575757575	0.0	0.0	153813.89628709477;	%BG1 0 coal
	2	47308.33333333332	18923.33333333333	3	0.0	172.030303030303	0.0	0.0	153813.89628709474;	%BG1 0 lignite
	2	199128.78787878787	79651.51515151515	3	0.0	159.3030303030303	0.0	0.0	1129545.2779412586;	%BG1 0 nuclear
	2	0.0	0.0	3	0.0	0.21	0.0	0.0	5293.842864339479;	%BG1 0 offwind
	2	0.0	0.0	3	0.0	0.20999999999999996	0.0	0.0	5835.353016737678;	%BG1 0 onwind
	2	0.0	0.0	3	0.0	0.0	0.0	0.0	12430.027611214562;	%BG1 0 ror
	2	0.0	0.0	3	0.0	0.13999999999999999	0.0	0.0	1593.152046526409;	%BG1 0 solar
	2	106618.59310344831	42647.437241379324	3	0.0	543.9724137931036	0.0	0.0	35451.022724123985;	%CH1 0 CCGT
	2	146870.9268292683	58748.37073170733	3	0.0	749.3414634146343	0.0	0.0	16143.756231897736;	%CH1 0 OCGT
	2	1065.28085106383	426.1123404255319	3	0.0	208.51063829787233	0.0	0.0	4444.249902950484;	%CH1 0 biomass
	2	0.0	0.0	3	0.0	0.21	0.0	0.0	5835.353016737678;	%CH1 0 onwind
	2	0.0	0.0	3	0.0	0.0	0.0	0.0	12430.027611214562;	%CH1 0 ror
	2	0.0	0.0	3	0.0	0.14	0.0	0.0	1593.152046526409;	%CH1 0 solar
	2	106618.5931034483	42647.43724137932	3	0.0	543.9724137931034	0.0	0.0	35451.02272412398;	%CH1 1 CCGT
	2	146870.9268292683	58748.37073170733	3	0.0	749.3414634146342	0.0	0.0	16143.756231897733;	%CH1 1 OCGT
	2	1065.28085106383	426.11234042553195	3	0.0	208.51063829787236	0.0	0.0	4444.249902950484;	%CH1 1 biomass
	2	0.0	0.0	3	0.0	0.21	0.0	0.0	5835.353016737678;	%CH1 1 onwind
	2	0.0	0.0	3	0.0	0.0	0.0	0.0	12430.027611214562;	%CH1 1 ror
	2	0.0	0.0	3	0.0	0.14	0.0	0.0	1593.1520465264093;	%CH1 1 solar
	2	106618.59310344831	42647.437241379324	3	0.0	543.9724137931036	0.0	0.0	35451.022724123985;	%CH1 2 CCGT
	2	146870.9268292683	58748.37073170733	3	0.0	749.3414634146343	0.0	0.0	16143.756231897736;	%CH1 2 OCGT
	2	1065.2808510638301	426.11234042553207	3	0.0	208.51063829787242	0.0	0.0	4444.249902950485;	%CH1 2 biomass
	2	199128.78787878787	79651.51515151515	3	0.0	159.3030303030303	0.0	0.0	1129545.2779412586;	%CH1 2 nuclear
	2	0.0	0.0	3	0.0	0.20999999999999996	0.0	0.0	5835.353016737678;	%CH1 2 onwind
	2	0.0	0.0	3	0.0	0.0	0.0	0.0	12430.027611214562;	%CH1 2 ror
	2	0.0	0.0	3	0.0	0.14	0.0	0.0	1593.152046526409;	%CH1 2 solar
	2	106618.59310344831	42647.437241379324	3	0.0	543.9724137931036	0.0	0.0	35451.022724123985;	%CH1 3 CCGT
	2	146870.9268292683	58748.37073170733	3	0.0	749.3414634146343	0.0	0.0	16143.756231897736;	%CH1 3 OCGT
	2	1065.28085106383	426.11234042553195	3	0.0	208.51063829787236	0.0	0.0	4444.249902950484;	%CH1 3 biomass
	2	0.0	0.0	3	0.0	0.20999999999999996	0.0	0.0	5835.353016737678;	%CH1 3 onwind
	2	0.0	0.0	3	0.0	0.0	0.0	0.0	12430.027611214562;	%CH1 3 ror
	2	0.0	0.0	3	0.0	0.14	0.0	0.0	1593.152046526409;	%CH1 3 solar
	2	106618.59310344831	42647.437241379324	3	0.0	543.9724137931036	0.0	0.0	35451.022724123985;	%CZ1 0 CCGT
	2	146870.9268292683	58748.37073170733	3	0.0	749.3414634146342	0.0	0.0	16143.756231897736;	%CZ1 0 OCGT
	2	0.0	0.0	3	0.0	0.21	0.0	0.0	5835.353016737678;	%CZ1 0 onwind
	2	0.0	0.0	3	0.0	0.14	0.0	0.0	1593.1520465264093;	%CZ1 0 solar
	2	106618.59310344831	42647.437241379324	3	0.0	543.9724137931036	0.0	0.0	35451.022724123985;	%CZ1 1 CCGT
	2	146870.9268292683	58748.37073170733	3	0.0	749.3414634146343	0.0	0.0	16143.756231897736;	%CZ1 1 OCGT
	2	47308.33333333333	18923.333333333332	3	0.0	172.03030303030303	0.0	0.0	153813.89628709477;	%CZ1 1 lignite
	2	199128.78787878787	79651.51515151515	3	0.0	159.3030303030303	0.0	0.0	1129545.2779412586;	%CZ1 1 nuclear
	2	0.0	0.0	3	0.0	0.21	0.0	0.0	5835.353016737678;	%CZ1 1 onwind
	2	0.0	0.0	3	0.0	0.0	0.0	0.0	12430.027611214562;	%CZ1 1 ror
	2	0.0	0.0	3	0.0	0.14	0.0	0.0	1593.152046526409;	%CZ1 1 solar
	2	106618.59310344831	42647.437241379324	3	0.0	543.9724137931036	0.0	0.0	35451.02272412398;	%CZ1 2 CCGT
	2	146870.9268292683	58748.37073170733	3	0.0	749.3414634146342	0.0	0.0	16143.756231897733;	%CZ1 2 OCGT
	2	47308.33333333333	18923.333333333332	3	0.0	172.03030303030303	0.0	0.0	153813.89628709477;	%CZ1 2 lignite
	2	199128.78787878787	79651.51515151515	3	0.0	159.3030303030303	0.0	0.0	1129545.2779412586;	%CZ1 2 nuclear
	2	0.0	0.0	3	0.0	0.21	0.0	0.0	5835.353016737678;	%CZ1 2 onwind
	2	0.0	0.0	3	0.0	0.14	0.0	0.0	1593.152046526409;	%CZ1 2 solar
	2	117820.09816092491	47128.03926436997	3	0.0	601.1229498006372	0.0	0.0	35451.022724123985;	%DE1 0 CCGT
	2	146870.9268292683	58748.37073170733	3	0.0	749.3414634146343	0.0	0.0	16143.756231897736;	%DE1 0 OCGT
	2	1065.2808510638301	426.112340425532	3	0.0	208.5106382978724	0.0	0.0	4444.249902950485;	%DE1 0 biomass
	2	44138.48223538393	17655.39289415357	3	0.0	160.5035717650325	0.0	0.0	153813.89628709477;	%DE1 0 lignite
	2	0.0	0.0	3	0.0	1926.1052631578946	0.0	0.0	3026.206071310709;	%DE1 0 oil
	2	0.0	0.0	3	0.0	0.21	0.0	0.0	5835.353016737678;	%DE1 0 onwind
	2	0.0	0.0	3	0.0	0.0	0.0	0.0	12430.027611214562;	%DE1 0 ror
	2	0.0	0.0	3	0.0	0.14	0.0	0.0	1593.152046526409;	%DE1 0 solar
	2	122872.68934421225	49149.0757376849	3	0.0	626.9014762459808	0.0	0.0	35451.022724123985;	%DE1 1 CCGT
	2	146870.9268292683	58748.37073170733	3	0.0	749.3414634146343	0.0	0.0	16143.756231897736;	%DE1 1 OCGT
	2	1065.28085106383	426.1123404255319	3	0.0	208.51063829787233	0.0	0.0	4444.249902950484;	%DE1 1 biomass
	2	0.0	0.0	3	0.0	0.20999999999999996	0.0	0.0	5835.353016737678;	%DE1 1 onwind
	2	0.0	0.0	3	0.0	0.0	0.0	0.0	12430.027611214566;	%DE1 1 ror
	2	0.0	0.0	3	0.0	0.14	0.0	0.0	1593.152046526409;	%DE1 1 solar
	2	123349.71377220226	49339.88550888091	3	0.0	629.3352743479707	0.0	0.0	35451.022724123985;	%DE1 10 CCGT
	2	146870.9268292683	58748.37073170733	3	0.0	749.3414634146343	0.0	0.0	16143.756231897736;	%DE1 10 OCGT
	2	1065.28085106383	426.11234042553195	3	0.0	208.51063829787236	0.0	0.0	4444.249902950484;	%DE1 10 biomass
	2	0.0	0.0	3	0.0	0.21	0.0	0.0	6045.065069157843;	%DE1 10 offwind
	2	0.0	0.0	3	0.0	0.21000000000000002	0.0	0.0	5835.353016737679;	%DE1 10 onwind
	2	0.0	0.0	3	0.0	0.14	0.0	0.0	1593.1520465264093;	%DE1 10 solar
	2	108901.33308737661	43560.53323495064	3	0.0	555.6190463641664	0.0	0.0	35451.022724123985;	%DE1 11 CCGT
	2	146870.9268292683	58748.37073170733	3	0.0	749.3414634146343	0.0	0.0	16143.756231897736;	%DE1 11 OCGT
	2	1065.28085106383	426.11234042553195	3	0.0	208.51063829787236	0.0	0.0	4444.249902950484;	%DE1 11 biomass
	2	0.0	0.0	3	0.0	0.21	0.0	0.0	5835.353016737678;	%DE1 11 onwind
	2	0.0	0.0	3	0.0	0.0	0.0	0.0	12430.02761121456;	%DE1 11 ror
	2	0.0	0.0	3	0.0	0.14	0.0	0.0	1593.152046526409;	%DE1 11 solar
	2	169322.6661614613	67729.06646458452	3	0.0	863.8911538850066	0.0	0.0	35451.022724123985;	%DE1 12 CCGT
	2	132930.4223874071	53172.16895496284	3	0.0	678.216440752077	0.0	0.0	16143.756231897736;	%DE1 12 OCGT
	2	1065.28085106383	426.11234042553195	3	0.0	208.51063829787236	0.0	0.0	4444.249902950484;	%DE1 12 biomass
	2	88203.64583333333	35281.45833333333	3	0.0	394.75757575757575	0.0	0.0	153813.89628709477;	%DE1 12 coal
	2	0.0	0.0	3	0.0	0.20999999999999996	0.0	0.0	5835.353016737678;	%DE1 12 onwind
	2	0.0	0.0	3	0.0	0.0	0.0	0.0	12430.027611214562;	%DE1 12 ror
	2	0.0	0.0	3	0.0	0.14	0.0	0.0	1593.152046526409;	%DE1 12 solar
	2	120626.73270585206	48250.69308234083	3	0.0	615.4425138053676	0.0	0.0	35451.022724123985;	%DE1 13 CCGT
	2	146870.9268292683	58748.37073170733	3	0.0	749.3414634146342	0.0	0.0	16143.756231897733;	%DE1 13 OCGT
	2	1065.28085106383	426.1123404255319	3	0.0	208.51063829787233	0.0	0.0	4444.249902950484;	%DE1 13 biomass
	2	88203.64583333333	35281.45833333333	3	0.0	394.75757575757575	0.0	0.0	153813.89628709477;	%DE1 13 coal
	2	0.0	0.0	3	0.0	0.20999999999999996	0.0	0.0	5047.304723939895;	%DE1 13 offwind
	2	0.0	0.0	3	0.0	0.21	0.0	0.0	5835.353016737678;	%DE1 13 onwind
	2	0.0	0.0	3	0.0	0.0	0.0	0.0	12430.027611214562;	%DE1 13 ror
	2	0.0	0.0	3	0.0	0.14	0.0	0.0	1593.152046526409;	%DE1 13 solar
	2	106618.59310344831	42647.437241379324	3	0.0	543.9724137931036	0.0	0.0	35451.022724123985;	%DE1 14 CCGT
	2	146870.9268292683	58748.37073170733	3	0.0	749.3414634146343	0.0	0.0	16143.756231897736;	%DE1 14 OCGT
	2	1065.28085106383	426.11234042553195	3	0.0	208.51063829787236	0.0	0.0	4444.249902950484;	%DE1 14 biomass
	2	0.0	0.0	3	0.0	0.21	0.0	0.0	5835.353016737678;	%DE1 14 onwind
	2	0.0	0.0	3	0.0	0.0	0.0	0.0	12430.027611214562;	%DE1 14 ror
	2	0.0	0.0	3	0.0	0.14	0.0	0.0	1593.1520465264089;	%DE1 14 solar
	2	110196.42117015278	44078.56846806111	3	0.0	562.2266386232284	0.0	0.0	35451.022724123985;	%DE1 15 CCGT
	2	146870.9268292683	58748.37073170733	3	0.0	749.3414634146342	0.0	0.0	16143.756231897733;	%DE1 15 OCGT
	2	1065.28085106383	426.11234042553195	3	0.0	208.51063829787236	0.0	0.0	4444.249902950484;	%DE1 15 biomass
	2	88203.64583333333	35281.45833333333	3	0.0	394.75757575757575	0.0	0.0	153813.89628709477;	%DE1 15 coal
	2	0.0	0.0	3	0.0	0.21	0.0	0.0	5835.353016737678;	%DE1 15 onwind
	2	0.0	0.0	3	0.0	0.0	0.0	0.0	12430.02761121456;	%DE1 15 ror
	2	0.0	0.0	3	0.0	0.14	0.0	0.0	1593.152046526409;	%DE1 15 solar
	2	149728.66889846654	59891.46755938662	3	0.0	763.9217800942171	0.0	0.0	35451.022724123985;	%DE1 16 CCGT
	2	146870.9268292683	58748.37073170733	3	0.0	749.3414634146343	0.0	0.0	16143.756231897736;	%DE1 16 OCGT
	2	1065.28085106383	426.11234042553195	3	0.0	208.51063829787236	0.0	0.0	4444.249902950485;	%DE1 16 biomass
	2	0.0	0.0	3	0.0	0.21	0.0	0.0	5835.353016737678;	%DE1 16 onwind
	2	0.0	0.0	3	0.0	0.0	0.0	0.0	12430.027611214566;	%DE1 16 ror
	2	0.0	0.0	3	0.0	0.14	0.0	0.0	1593.1520465264093;	%DE1 16 solar
	2	121285.68793900422	48514.27517560169	3	0.0	618.8045303010418	0.0	0.0	35451.022724123985;	%DE1 17 CCGT
	2	146870.9268292683	58748.37073170733	3	0.0	749.3414634146343	0.0	0.0	16143.756231897736;	%DE1 17 OCGT
	2	1065.28085106383	426.1123404255319	3	0.0	208.51063829787233	0.0	0.0	4444.249902950484;	%DE1 17 biomass
	2	42611.22129436326	17044.488517745307	3	0.0	154.9498956158664	0.0	0.0	153813.89628709477;	%DE1 17 lignite
	2	0.0	0.0	3	0.0	0.21000000000000002	0.0	0.0	5835.353016737679;	%DE1 17 onwind
	2	0.0	0.0	3	0.0	0.0	0.0	0.0	12430.027611214562;	%DE1 17 ror
	2	0.0	0.0	3	0.0	0.14	0.0	0.0	1593.152046526409;	%DE1 17 solar
	2	129717.33487164635	51886.93394865854	3	0.0	661.8231371002364	0.0	0.0	35451.022724123985;	%DE1 18 CCGT
	2	146870.9268292683	58748.37073170733	3	0.0	749.3414634146343	0.0	0.0	16143.756231897736;	%DE1 18 OCGT
	2	1065.28085106383	426.11234042553195	3	0.0	208.51063829787236	0.0	0.0	4444.249902950485;	%DE1 18 biomass
	2	0.0	0.0	3	0.0	0.21000000000000002	0.0	0.0	5835.353016737678;	%DE1 18 onwind
	2	0.0	0.0	3	0.0	0.0	0.0	0.0	12430.027611214562;	%DE1 18 ror
	2	0.0	0.0	3	0.0	0.14	0.0	0.0	1593.152046526409;	%DE1 18 solar
	2	159114.37838167467	63645.751352669875	3	0.0	811.8080529677279	0.0	0.0	35451.022724123985;	%DE1 19 CCGT
	2	146870.9268292683	58748.37073170733	3	0.0	749.3414634146343	0.0	0.0	16143.756231897736;	%DE1 19 OCGT
	2	1065.28085106383	426.1123404255319	3	0.0	208.51063829787233	0.0	0.0	4444.249902950484;	%DE1 19 biomass
	2	0.0	0.0	3	0.0	0.20999999999999996	0.0	0.0	5835.353016737678;	%DE1 19 onwind
	2	0.0	0.0	3	0.0	0.0	0.0	0.0	12430.027611214566;	%DE1 19 ror
	2	0.0	0.0	3	0.0	0.14	0.0	0.0	1593.152046526409;	%DE1 19 solar
	2	106536.68630490957	42614.67452196383	3	0.0	543.5545219638243	0.0	0.0	35451.022724123985;	%DE1 2 CCGT
	2	146870.9268292683	58748.37073170733	3	0.0	749.3414634146343	0.0	0.0	16143.756231897736;	%DE1 2 OCGT
	2	1065.28085106383	426.11234042553195	3	0.0	208.51063829787236	0.0	0.0	4444.249902950484;	%DE1 2 biomass
	2	88203.64583333333	35281.45833333333	3	0.0	394.75757575757575	0.0	0.0	153813.89628709477;	%DE1 2 coal
	2	0.0	0.0	3	0.0	0.21	0.0	0.0	5103.9221719785155;	%DE1 2 offwind
	2	0.0	0.0	3	0.0	0.21	0.0	0.0	5835.353016737679;	%DE1 2 onwind
	2	0.0	0.0	3	0.0	0.0	0.0	0.0	12430.027611214562;	%DE1 2 ror
	2	0.0	0.0	3	0.0	0.14	0.0	0.0	1593.152046526409;	%DE1 2 solar
	2	114846.73602027676	45938.69440811071	3	0.0	585.9527347973304	0.0	0.0	35451.022724123985;	%DE1 20 CCGT
	2	146870.9268292683	58748.37073170733	3	0.0	749.3414634146342	0.0	0.0	16143.756231897736;	%DE1 20 OCGT
	2	1065.28085106383	426.1123404255319	3	0.0	208.51063829787233	0.0	0.0	4444.249902950484;	%DE1 20 biomass
	2	88203.64583333333	35281.45833333333	3	0.0	394.75757575757575	0.0	0.0	153813.89628709474;	%DE1 20 coal
	2	0.0	0.0	3	0.0	0.20999999999999994	0.0	0.0	5835.3530167376775;	%DE1 20 onwind
	2	0.0	0.0	3	0.0	0.0	0.0	0.0	12430.027611214562;	%DE1 20 ror
	2	0.0	0.0	3	0.0	0.13999999999999999	0.0	0.0	1593.1520465264089;	%DE1 20 solar
	2	122883.78681920204	49153.51472768081	3	0.0	626.9580960163369	0.0	0.0	35451.022724123985;	%DE1 21 CCGT
	2	146870.9268292683	58748.37073170733	3	0.0	749.3414634146342	0.0	0.0	16143.756231897733;	%DE1 21 OCGT
	2	1065.28085106383	426.11234042553195	3	0.0	208.51063829787236	0.0	0.0	4444.249902950485;	%DE1 21 biomass
	2	41945.30058634873	16778.120234539492	3	0.0	152.52836576854082	0.0	0.0	153813.89628709474;	%DE1 21 lignite
	2	0.0	0.0	3	0.0	0.21	0.0	0.0	5835.353016737678;	%DE1 21 onwind
	2	0.0	0.0	3	0.0	0.0	0.0	0.0	12430.027611214566;	%DE1 21 ror
	2	0.0	0.0	3	0.0	0.14	0.0	0.0	1593.152046526409;	%DE1 21 solar
	2	115022.9502607974	46009.18010431896	3	0.0	586.8517870448848	0.0	0.0	35451.022724123985;	%DE1 22 CCGT
	2	146870.9268292683	58748.37073170733	3	0.0	749.3414634146342	0.0	0.0	16143.756231897733;	%DE1 22 OCGT
	2	1065.28085106383	426.11234042553195	3	0.0	208.51063829787236	0.0	0.0	4444.249902950484;	%DE1 22 biomass
	2	0.0	0.0	3	0.0	0.21	0.0	0.0	5835.353016737678;	%DE1 22 onwind
	2	0.0	0.0	3	0.0	0.0	0.0	0.0	12430.02761121456;	%DE1 22 ror
...
];
%% branch data
%	fbus	tbus	r	x	b	rateA	rateB	rateC	ratio	angle	status	angmin	angmax
mpc.branch = [
	1	66	0.0	0.0	0.0	1698.1026117405274	1698.1026117405274	1698.1026117405274	0	0	1	-60	60;	%AL1 0 - GR1 0
	1	75	0.0	0.0	0.0	2189.658630928575	2189.658630928575	2189.658630928575	0	0	1	-60	60;	%AL1 0 - ME1 0
	3	28	0.0	0.0	0.0	3396.205223481055	3396.205223481055	3396.205223481055	0	0	1	-60	60;	%AT1 1 - DE1 19
	32	40	0.0	0.0	0.0	11171.72770881926	11171.72770881926	11171.72770881926	0	0	1	-60	60;	%DE1 22 - DE1 3
	32	44	0.0	0.0	0.0	5094.3078352215825	5094.3078352215825	5094.3078352215825	0	0	1	-60	60;	%DE1 22 - DE1 33
	32	50	0.0	0.0	0.0	5094.3078352215825	5094.3078352215825	5094.3078352215825	0	0	1	-60	60;	%DE1 22 - DE1 8
	34	43	0.0	0.0	0.0	5362.429300233244	5362.429300233244	5362.429300233244	0	0	1	-60	60;	%DE1 24 - DE1 32
	34	48	0.0	0.0	0.0	4379.31726185715	4379.31726185715	4379.31726185715	0	0	1	-60	60;	%DE1 24 - DE1 6
	34	83	0.0	0.0	0.0	3396.205223481055	3396.205223481055	3396.205223481055	0	0	1	-60	60;	%DE1 24 - PL1 2
	35	50	0.0	0.0	0.0	10188.615670443165	10188.615670443165	10188.615670443165	0	0	1	-60	60;	%DE1 25 - DE1 8
	36	42	0.0	0.0	0.0	3396.205223481055	3396.205223481055	3396.205223481055	0	0	1	-60	60;	%DE1 26 - DE1 31
	36	50	0.0	0.0	0.0	7775.522485338204	7775.522485338204	7775.522485338204	0	0	1	-60	60;	%DE1 26 - DE1 8
	37	52	0.0	0.0	0.0	4379.31726185715	4379.31726185715	4379.31726185715	0	0	1	-60	60;	%DE1 27 - DK1 0
	3	33	0.0	0.0	0.0	10188.615670443165	10188.615670443165	10188.615670443165	0	0	1	-60	60;	%AT1 1 - DE1 23
	38	77	0.0	0.0	0.0	3396.205223481055	3396.205223481055	3396.205223481055	0	0	1	-60	60;	%DE1 28 - NL1 0
	39	49	0.0	0.0	0.0	6077.419873597677	6077.419873597677	6077.419873597677	0	0	1	-60	60;	%DE1 29 - DE1 7
	42	47	0.0	0.0	0.0	3396.205223481055	3396.205223481055	3396.205223481055	0	0	1	-60	60;	%DE1 31 - DE1 5
	42	50	0.0	0.0	0.0	5094.3078352215825	5094.3078352215825	5094.3078352215825	0	0	1	-60	60;	%DE1 31 - DE1 8
	43	51	0.0	0.0	0.0	4379.31726185715	4379.31726185715	4379.31726185715	0	0	1	-60	60;	%DE1 32 - DE1 9
	44	62	0.0	0.0	0.0	3887.761242669102	3887.761242669102	3887.761242669102	0	0	1	-60	60;	%DE1 33 - FR1 4
	45	49	0.0	0.0	0.0	4379.31726185715	4379.31726185715	4379.31726185715	0	0	1	-60	60;	%DE1 34 - DE1 7
	46	51	0.0	0.0	0.0	983.1120383760948	983.1120383760948	983.1120383760948	0	0	1	-60	60;	%DE1 4 - DE1 9
	48	51	0.0	0.0	0.0	10188.615670443165	10188.615670443165	10188.615670443165	0	0	1	-60	60;	%DE1 6 - DE1 9
	53	88	0.0	0.0	0.0	3396.205223481055	3396.205223481055	3396.205223481055	0	0	1	-60	60;	%DK2 0 - SE2 0
	4	5	0.0	0.0	0.0	6345.541338609339	6345.541338609339	6345.541338609339	0	0	1	-60	60;	%AT1 2 - AT1 3
	54	74	0.0	0.0	0.0	3016.3664813811993	3016.3664813811993	3016.3664813811993	0	0	1	-60	60;	%EE6 0 - LV6 0
	55	58	0.0	0.0	0.0	4379.31726185715	4379.31726185715	4379.31726185715	0	0	1	-60	60;	%ES1 0 - FR1 0
	55	85	0.0	0.0	0.0	15059.488951488362	15059.488951488362	15059.488951488362	0	0	1	-60	60;	%ES1 0 - PT1 0
	57	88	0.0	0.0	0.0	3396.205223481055	3396.205223481055	3396.205223481055	0	0	1	-60	60;	%FI2 0 - SE2 0
	58	59	0.0	0.0	0.0	14344.49837812393	14344.49837812393	14344.49837812393	0	0	1	-60	60;	%FR1 0 - FR1 1
	58	60	0.0	0.0	0.0	10724.858600466488	10724.858600466488	10724.858600466488	0	0	1	-60	60;	%FR1 0 - FR1 2
	58	61	0.0	0.0	0.0	13137.951785571448	13137.951785571448	13137.951785571448	0	0	1	-60	60;	%FR1 0 - FR1 3
	59	61	0.0	0.0	0.0	9250.190542902346	9250.190542902346	9250.190542902346	0	0	1	-60	60;	%FR1 1 - FR1 3
	59	62	0.0	0.0	0.0	23103.132901838228	23103.132901838228	23103.132901838228	0	0	1	-60	60;	%FR1 1 - FR1 4
	60	62	0.0	0.0	0.0	13852.942358935881	13852.942358935881	13852.942358935881	0	0	1	-60	60;	%FR1 2 - FR1 4
	4	39	0.0	0.0	0.0	2457.780095940237	2457.780095940237	2457.780095940237	0	0	1	-60	60;	%AT1 2 - DE1 29
	60	70	0.0	0.0	0.0	5585.86385440963	5585.86385440963	5585.86385440963	0	0	1	-60	60;	%FR1 2 - IT1 0
	63	64	0.0	0.0	0.0	45022.06266654161	45022.06266654161	45022.06266654161	0	0	1	-60	60;	%GB0 0 - GB0 1
	65	69	0.0	0.0	0.0	983.1120383760948	983.1120383760948	983.1120383760948	0	0	1	-60	60;	%GB5 0 - IE5 0
	66	76	0.0	0.0	0.0	3396.205223481055	3396.205223481055	3396.205223481055	0	0	1	-60	60;	%GR1 0 - MK1 0
	67	68	0.0	0.0	0.0	6792.41044696211	6792.41044696211	6792.41044696211	0	0	1	-60	60;	%HR1 0 - HU1 0
	67	87	0.0	0.0	0.0	1698.1026117405274	1698.1026117405274	1698.1026117405274	0	0	1	-60	60;	%HR1 0 - RS1 0
	67	89	0.0	0.0	0.0	6077.419873597677	6077.419873597677	6077.419873597677	0	0	1	-60	60;	%HR1 0 - SI1 0
	68	86	0.0	0.0	0.0	3396.205223481055	3396.205223481055	3396.205223481055	0	0	1	-60	60;	%HU1 0 - RO1 0
	68	87	0.0	0.0	0.0	1698.1026117405274	1698.1026117405274	1698.1026117405274	0	0	1	-60	60;	%HU1 0 - RS1 0
	68	90	0.0	0.0	0.0	3396.205223481055	3396.205223481055	3396.205223481055	0	0	1	-60	60;	%HU1 0 - SK1 0
	4	70	0.0	0.0	0.0	491.5560191880474	491.5560191880474	491.5560191880474	0	0	1	-60	60;	%AT1 2 - IT1 0
	70	89	0.0	0.0	0.0	2189.658630928575	2189.658630928575	2189.658630928575	0	0	1	-60	60;	%IT1 0 - SI1 0
	72	74	0.0	0.0	0.0	4021.8219751749325	4021.8219751749325	4021.8219751749325	0	0	1	-60	60;	%LT6 0 - LV6 0
	75	87	0.0	0.0	0.0	2681.214650116622	2681.214650116622	2681.214650116622	0	0	1	-60	60;	%ME1 0 - RS1 0
	76	87	0.0	0.0	0.0	3396.205223481055	3396.205223481055	3396.205223481055	0	0	1	-60	60;	%MK1 0 - RS1 0
	77	78	0.0	0.0	0.0	8490.513058702638	8490.513058702638	8490.513058702638	0	0	1	-60	60;	%NL1 0 - NL1 1
	77	79	0.0	0.0	0.0	5362.429300233244	5362.429300233244	5362.429300233244	0	0	1	-60	60;	%NL1 0 - NL1 2
	80	88	0.0	0.0	0.0	7283.966466150157	7283.966466150157	7283.966466150157	0	0	1	-60	60;	%NO2 0 - SE2 0
	81	82	0.0	0.0	0.0	7775.522485338204	7775.522485338204	7775.522485338204	0	0	1	-60	60;	%PL1 0 - PL1 1
	81	84	0.0	0.0	0.0	11931.405193018969	11931.405193018969	11931.405193018969	0	0	1	-60	60;	%PL1 0 - PL1 3
	81	90	0.0	0.0	0.0	3396.205223481055	3396.205223481055	3396.205223481055	0	0	1	-60	60;	%PL1 0 - SK1 0
	5	89	0.0	0.0	0.0	491.5560191880474	491.5560191880474	491.5560191880474	0	0	1	-60	60;	%AT1 3 - SI1 0
	82	83	0.0	0.0	0.0	16266.03554404084	16266.03554404084	16266.03554404084	0	0	1	-60	60;	%PL1 1 - PL1 2
	82	84	0.0	0.0	0.0	4379.31726185715	4379.31726185715	4379.31726185715	0	0	1	-60	60;	%PL1 1 - PL1 3
	83	84	0.0	0.0	0.0	8982.069077890685	8982.069077890685	8982.069077890685	0	0	1	-60	60;	%PL1 2 - PL1 3
	86	87	0.0	0.0	0.0	5094.3078352215825	5094.3078352215825	5094.3078352215825	0	0	1	-60	60;	%RO1 0 - RS1 0
	6	67	0.0	0.0	0.0	5362.429300233244	5362.429300233244	5362.429300233244	0	0	1	-60	60;	%BA1 0 - HR1 0
	6	75	0.0	0.0	0.0	2681.214650116622	2681.214650116622	2681.214650116622	0	0	1	-60	60;	%BA1 0 - ME1 0
	6	87	0.0	0.0	0.0	2189.658630928575	2189.658630928575	2189.658630928575	0	0	1	-60	60;	%BA1 0 - RS1 0
	7	8	0.0	0.0	0.0	6792.41044696211	6792.41044696211	6792.41044696211	0	0	1	-60	60;	%BE1 0 - BE1 1
	1	76	0.0	0.0	0.0	1698.1026117405274	1698.1026117405274	1698.1026117405274	0	0	1	-60	60;	%AL1 0 - MK1 0
	7	59	0.0	0.0	0.0	6792.41044696211	6792.41044696211	6792.41044696211	0	0	1	-60	60;	%BE1 0 - FR1 1
	7	78	0.0	0.0	0.0	3396.205223481055	3396.205223481055	3396.205223481055	0	0	1	-60	60;	%BE1 0 - NL1 1
	8	62	0.0	0.0	0.0	2681.214650116622	2681.214650116622	2681.214650116622	0	0	1	-60	60;	%BE1 1 - FR1 4
	8	73	0.0	0.0	0.0	983.1120383760948	983.1120383760948	983.1120383760948	0	0	1	-60	60;	%BE1 1 - LU1 0
	8	77	0.0	0.0	0.0	3396.205223481055	3396.205223481055	3396.205223481055	0	0	1	-60	60;	%BE1 1 - NL1 0
	9	66	0.0	0.0	0.0	1698.1026117405274	1698.1026117405274	1698.1026117405274	0	0	1	-60	60;	%BG1 0 - GR1 0
	9	76	0.0	0.0	0.0	1698.1026117405274	1698.1026117405274	1698.1026117405274	0	0	1	-60	60;	%BG1 0 - MK1 0
	9	86	0.0	0.0	0.0	6792.41044696211	6792.41044696211	6792.41044696211	0	0	1	-60	60;	%BG1 0 - RO1 0
	9	87	0.0	0.0	0.0	1698.1026117405274	1698.1026117405274	1698.1026117405274	0	0	1	-60	60;	%BG1 0 - RS1 0
	10	11	0.0	0.0	0.0	1966.2240767521896	1966.2240767521896	1966.2240767521896	0	0	1	-60	60;	%CH1 0 - CH1 1
	1	87	0.0	0.0	0.0	2189.658630928575	2189.658630928575	2189.658630928575	0	0	1	-60	60;	%AL1 0 - RS1 0
	10	12	0.0	0.0	0.0	5362.429300233244	5362.429300233244	5362.429300233244	0	0	1	-60	60;	%CH1 0 - CH1 2
	10	60	0.0	0.0	0.0	6345.541338609339	6345.541338609339	6345.541338609339	0	0	1	-60	60;	%CH1 0 - FR1 2
	10	70	0.0	0.0	0.0	983.1120383760948	983.1120383760948	983.1120383760948	0	0	1	-60	60;	%CH1 0 - IT1 0
	11	12	0.0	0.0	0.0	4379.31726185715	4379.31726185715	4379.31726185715	0	0	1	-60	60;	%CH1 1 - CH1 2
	11	13	0.0	0.0	0.0	8490.513058702638	8490.513058702638	8490.513058702638	0	0	1	-60	60;	%CH1 1 - CH1 3
	11	70	0.0	0.0	0.0	3887.761242669102	3887.761242669102	3887.761242669102	0	0	1	-60	60;	%CH1 1 - IT1 0
	12	13	0.0	0.0	0.0	13852.942358935883	13852.942358935883	13852.942358935883	0	0	1	-60	60;	%CH1 2 - CH1 3
	12	27	0.0	0.0	0.0	27169.64178784844	27169.64178784844	27169.64178784844	0	0	1	-60	60;	%CH1 2 - DE1 18
	12	62	0.0	0.0	0.0	3396.205223481055	3396.205223481055	3396.205223481055	0	0	1	-60	60;	%CH1 2 - FR1 4
	13	70	0.0	0.0	0.0	3396.205223481055	3396.205223481055	3396.205223481055	0	0	1	-60	60;	%CH1 3 - IT1 0
	2	5	0.0	0.0	0.0	8758.6345237143	8758.6345237143	8758.6345237143	0	0	1	-60	60;	%AT1 0 - AT1 3
	14	16	0.0	0.0	0.0	9473.625097078731	9473.625097078731	9473.625097078731	0	0	1	-60	60;	%CZ1 0 - CZ1 2
	14	84	0.0	0.0	0.0	4379.31726185715	4379.31726185715	4379.31726185715	0	0	1	-60	60;	%CZ1 0 - PL1 3
	14	90	0.0	0.0	0.0	2189.658630928575	2189.658630928575	2189.658630928575	0	0	1	-60	60;	%CZ1 0 - SK1 0
	15	16	0.0	0.0	0.0	12154.839747195354	12154.839747195354	12154.839747195354	0	0	1	-60	60;	%CZ1 1 - CZ1 2
	15	25	0.0	0.0	0.0	3396.205223481055	3396.205223481055	3396.205223481055	0	0	1	-60	60;	%CZ1 1 - DE1 16
	15	46	0.0	0.0	0.0	3396.205223481055	3396.205223481055	3396.205223481055	0	0	1	-60	60;	%CZ1 1 - DE1 4
	16	90	0.0	0.0	0.0	3887.761242669102	3887.761242669102	3887.761242669102	0	0	1	-60	60;	%CZ1 2 - SK1 0
	17	23	0.0	0.0	0.0	3396.205223481055	3396.205223481055	3396.205223481055	0	0	1	-60	60;	%DE1 0 - DE1 14
	17	24	0.0	0.0	0.0	6077.419873597677	6077.419873597677	6077.419873597677	0	0	1	-60	60;	%DE1 0 - DE1 15
	17	35	0.0	0.0	0.0	12869.830320559786	12869.830320559786	12869.830320559786	0	0	1	-60	60;	%DE1 0 - DE1 25
	2	16	0.0	0.0	0.0	4379.31726185715	4379.31726185715	4379.31726185715	0	0	1	-60	60;	%AT1 0 - CZ1 2
	17	38	0.0	0.0	0.0	11886.718282183692	11886.718282183692	11886.718282183692	0	0	1	-60	60;	%DE1 0 - DE1 28
	17	77	0.0	0.0	0.0	3396.205223481055	3396.205223481055	3396.205223481055	0	0	1	-60	60;	%DE1 0 - NL1 0
	18	25	0.0	0.0	0.0	983.1120383760948	983.1120383760948	983.1120383760948	0	0	1	-60	60;	%DE1 1 - DE1 16
	18	36	0.0	0.0	0.0	9473.625097078733	9473.625097078733	9473.625097078733	0	0	1	-60	60;	%DE1 1 - DE1 26
	18	41	0.0	0.0	0.0	5094.3078352215825	5094.3078352215825	5094.3078352215825	0	0	1	-60	60;	%DE1 1 - DE1 30
	18	45	0.0	0.0	0.0	6077.419873597677	6077.419873597677	6077.419873597677	0	0	1	-60	60;	%DE1 1 - DE1 34
	19	22	0.0	0.0	0.0	6792.41044696211	6792.41044696211	6792.41044696211	0	0	1	-60	60;	%DE1 10 - DE1 13
	19	24	0.0	0.0	0.0	5094.3078352215825	5094.3078352215825	5094.3078352215825	0	0	1	-60	60;	%DE1 10 - DE1 15
	19	38	0.0	0.0	0.0	8490.513058702638	8490.513058702638	8490.513058702638	0	0	1	-60	60;	%DE1 10 - DE1 28
	19	47	0.0	0.0	0.0	6792.41044696211	6792.41044696211	6792.41044696211	0	0	1	-60	60;	%DE1 10 - DE1 5
	2	68	0.0	0.0	0.0	4379.31726185715	4379.31726185715	4379.31726185715	0	0	1	-60	60;	%AT1 0 - HU1 0
	19	77	0.0	0.0	0.0	3396.205223481055	3396.205223481055	3396.205223481055	0	0	1	-60	60;	%DE1 10 - NL1 0
	19	79	0.0	0.0	0.0	3396.205223481055	3396.205223481055	3396.205223481055	0	0	1	-60	60;	%DE1 10 - NL1 2
	20	26	0.0	0.0	0.0	3396.205223481055	3396.205223481055	3396.205223481055	0	0	1	-60	60;	%DE1 11 - DE1 17
	20	42	0.0	0.0	0.0	3396.205223481055	3396.205223481055	3396.205223481055	0	0	1	-60	60;	%DE1 11 - DE1 31
	21	27	0.0	0.0	0.0	3396.205223481055	3396.205223481055	3396.205223481055	0	0	1	-60	60;	%DE1 12 - DE1 18
	21	32	0.0	0.0	0.0	6792.41044696211	6792.41044696211	6792.41044696211	0	0	1	-60	60;	%DE1 12 - DE1 22
	21	33	0.0	0.0	0.0	10188.615670443165	10188.615670443165	10188.615670443165	0	0	1	-60	60;	%DE1 12 - DE1 23
	21	36	0.0	0.0	0.0	3396.205223481055	3396.205223481055	3396.205223481055	0	0	1	-60	60;	%DE1 12 - DE1 26
	21	40	0.0	0.0	0.0	5094.3078352215825	5094.3078352215825	5094.3078352215825	0	0	1	-60	60;	%DE1 12 - DE1 3
	22	29	0.0	0.0	0.0	10188.615670443165	10188.615670443165	10188.615670443165	0	0	1	-60	60;	%DE1 13 - DE1 2
	2	89	0.0	0.0	0.0	3396.205223481055	3396.205223481055	3396.205223481055	0	0	1	-60	60;	%AT1 0 - SI1 0
	22	37	0.0	0.0	0.0	983.1120383760948	983.1120383760948	983.1120383760948	0	0	1	-60	60;	%DE1 13 - DE1 27
	22	47	0.0	0.0	0.0	11171.727708819259	11171.727708819259	11171.727708819259	0	0	1	-60	60;	%DE1 13 - DE1 5
	23	35	0.0	0.0	0.0	1474.6680575641421	1474.6680575641421	1474.6680575641421	0	0	1	-60	60;	%DE1 14 - DE1 25
	23	44	0.0	0.0	0.0	6077.419873597677	6077.419873597677	6077.419873597677	0	0	1	-60	60;	%DE1 14 - DE1 33
	23	73	0.0	0.0	0.0	3440.892134316332	3440.892134316332	3440.892134316332	0	0	1	-60	60;	%DE1 14 - LU1 0
	24	35	0.0	0.0	0.0	8758.6345237143	8758.6345237143	8758.6345237143	0	0	1	-60	60;	%DE1 15 - DE1 25
	24	38	0.0	0.0	0.0	11171.72770881926	11171.72770881926	11171.72770881926	0	0	1	-60	60;	%DE1 15 - DE1 28
	24	42	0.0	0.0	0.0	3396.205223481055	3396.205223481055	3396.205223481055	0	0	1	-60	60;	%DE1 15 - DE1 31
	24	47	0.0	0.0	0.0	3396.205223481055	3396.205223481055	3396.205223481055	0	0	1	-60	60;	%DE1 15 - DE1 5
	25	26	0.0	0.0	0.0	3396.205223481055	3396.205223481055	3396.205223481055	0	0	1	-60	60;	%DE1 16 - DE1 17
	3	4	0.0	0.0	0.0	983.1120383760948	983.1120383760948	983.1120383760948	0	0	1	-60	60;	%AT1 1 - AT1 2
	25	39	0.0	0.0	0.0	3396.205223481055	3396.205223481055	3396.205223481055	0	0	1	-60	60;	%DE1 16 - DE1 29
	26	41	0.0	0.0	0.0	18679.128729145803	18679.128729145803	18679.128729145803	0	0	1	-60	60;	%DE1 17 - DE1 30
	26	46	0.0	0.0	0.0	7775.522485338204	7775.522485338204	7775.522485338204	0	0	1	-60	60;	%DE1 17 - DE1 4
	26	51	0.0	0.0	0.0	4379.31726185715	4379.31726185715	4379.31726185715	0	0	1	-60	60;	%DE1 17 - DE1 9
	27	33	0.0	0.0	0.0	3396.205223481055	3396.205223481055	3396.205223481055	0	0	1	-60	60;	%DE1 18 - DE1 23
	27	40	0.0	0.0	0.0	6077.419873597677	6077.419873597677	6077.419873597677	0	0	1	-60	60;	%DE1 18 - DE1 3
	27	62	0.0	0.0	0.0	5585.86385440963	5585.86385440963	5585.86385440963	0	0	1	-60	60;	%DE1 18 - FR1 4
	28	33	0.0	0.0	0.0	7775.522485338204	7775.522485338204	7775.522485338204	0	0	1	-60	60;	%DE1 19 - DE1 23
	28	49	0.0	0.0	0.0	5094.3078352215825	5094.3078352215825	5094.3078352215825	0	0	1	-60	60;	%DE1 19 - DE1 7
	29	30	0.0	0.0	0.0	3396.205223481055	3396.205223481055	3396.205223481055	0	0	1	-60	60;	%DE1 2 - DE1 20
	3	13	0.0	0.0	0.0	6792.41044696211	6792.41044696211	6792.41044696211	0	0	1	-60	60;	%AT1 1 - CH1 3
	29	37	0.0	0.0	0.0	24756.548602743478	24756.548602743478	24756.548602743478	0	0	1	-60	60;	%DE1 2 - DE1 27
	29	43	0.0	0.0	0.0	3396.205223481055	3396.205223481055	3396.205223481055	0	0	1	-60	60;	%DE1 2 - DE1 32
	30	42	0.0	0.0	0.0	6792.41044696211	6792.41044696211	6792.41044696211	0	0	1	-60	60;	%DE1 20 - DE1 31
	30	47	0.0	0.0	0.0	983.1120383760948	983.1120383760948	983.1120383760948	0	0	1	-60	60;	%DE1 20 - DE1 5
	30	51	0.0	0.0	0.0	3396.205223481055	3396.205223481055	3396.205223481055	0	0	1	-60	60;	%DE1 20 - DE1 9
	31	46	0.0	0.0	0.0	10188.615670443165	10188.615670443165	10188.615670443165	0	0	1	-60	60;	%DE1 21 - DE1 4
	31	48	0.0	0.0	0.0	13584.82089392422	13584.82089392422	13584.82089392422	0	0	1	-60	60;	%DE1 21 - DE1 6
	31	83	0.0	0.0	0.0	3396.205223481055	3396.205223481055	3396.205223481055	0	0	1	-60	60;	%DE1 21 - PL1 2
	32	35	0.0	0.0	0.0	3396.205223481055	3396.205223481055	3396.205223481055	0	0	1	-60	60;	%DE1 22 - DE1 25
	32	36	0.0	0.0	0.0	3396.205223481055	3396.205223481055	3396.205223481055	0	0	1	-60	60;	%DE1 22 - DE1 26
];
%% dcline data
%	fbus	tbus	status	Pf	Pt	Qf	Qt	Vf	Vt	Pmin	Pmax	QminF	QmaxF	QminT	QmaxT	loss0	loss1
mpc.dcline = [
	70	66	1	0.0	0.0	0.0	0.0	1.0	1.0	-500.0	500.0	-500.0	500.0	-500.0	500.0	0.0	0.01;	%IT1 0 - GR1 0
	56	55	1	0.0	0.0	0.0	0.0	1.0	1.0	-400.0	400.0	-400.0	400.0	-400.0	400.0	0.0	0.01;	%ES4 0 - ES1 0
	70	71	1	0.0	0.0	0.0	0.0	1.0	1.0	-1000.0	1000.0	-1000.0	1000.0	-1000.0	1000.0	0.0	0.01;	%IT1 0 - IT3 0
	70	75	1	0.0	0.0	0.0	0.0	1.0	1.0	-1000.0	1000.0	-1000.0	1000.0	-1000.0	1000.0	0.0	0.01;	%IT1 0 - ME1 0
	58	55	1	0.0	0.0	0.0	0.0	1.0	1.0	-2000.0	2000.0	-2000.0	2000.0	-2000.0	2000.0	0.0	0.01;	%FR1 0 - ES1 0
	17	8	1	0.0	0.0	0.0	0.0	1.0	1.0	-1000.0	1000.0	-1000.0	1000.0	-1000.0	1000.0	0.0	0.01;	%DE1 0 - BE1 1
	63	78	1	0.0	0.0	0.0	0.0	1.0	1.0	-1000.0	1000.0	-1000.0	1000.0	-1000.0	1000.0	0.0	0.01;	%GB0 0 - NL1 1
	63	59	1	0.0	0.0	0.0	0.0	1.0	1.0	-2000.0	2000.0	-2000.0	2000.0	-2000.0	2000.0	0.0	0.01;	%GB0 0 - FR1 1
	72	88	1	0.0	0.0	0.0	0.0	1.0	1.0	-700.0	700.0	-700.0	700.0	-700.0	700.0	0.0	0.01;	%LT6 0 - SE2 0
	53	52	1	0.0	0.0	0.0	0.0	1.0	1.0	-600.0	600.0	-600.0	600.0	-600.0	600.0	0.0	0.01;	%DK2 0 - DK1 0
	53	43	1	0.0	0.0	0.0	0.0	1.0	1.0	-600.0	600.0	-600.0	600.0	-600.0	600.0	0.0	0.01;	%DK2 0 - DE1 32
	88	29	1	0.0	0.0	0.0	0.0	1.0	1.0	-600.0	600.0	-600.0	600.0	-600.0	600.0	0.0	0.01;	%SE2 0 - DE1 2
	82	88	1	0.0	0.0	0.0	0.0	1.0	1.0	-600.0	600.0	-600.0	600.0	-600.0	600.0	0.0	0.01;	%PL1 1 - SE2 0
	79	52	1	0.0	0.0	0.0	0.0	1.0	1.0	-700.0	700.0	-700.0	700.0	-700.0	700.0	0.0	0.01;	%NL1 2 - DK1 0
	79	80	1	0.0	0.0	0.0	0.0	1.0	1.0	-700.0	700.0	-700.0	700.0	-700.0	700.0	0.0	0.01;	%NL1 2 - NO2 0
	37	80	1	0.0	0.0	0.0	0.0	1.0	1.0	-1400.0	1400.0	-1400.0	1400.0	-1400.0	1400.0	0.0	0.01;	%DE1 27 - NO2 0
	64	65	1	0.0	0.0	0.0	0.0	1.0	1.0	-2501.0	2501.0	-2501.0	2501.0	-2501.0	2501.0	0.0	0.01;	%GB0 1 - GB5 0
	64	65	1	0.0	0.0	0.0	0.0	1.0	1.0	-250.0	250.0	-250.0	250.0	-250.0	250.0	0.0	0.01;	%GB0 1 - GB5 0
	64	69	1	0.0	0.0	0.0	0.0	1.0	1.0	-500.0	500.0	-500.0	500.0	-500.0	500.0	0.0	0.01;	%GB0 1 - IE5 0
	88	52	1	0.0	0.0	0.0	0.0	1.0	1.0	-250.0	250.0	-250.0	250.0	-250.0	250.0	0.0	0.01;	%SE2 0 - DK1 0
	88	52	1	0.0	0.0	0.0	0.0	1.0	1.0	-300.0	300.0	-300.0	300.0	-300.0	300.0	0.0	0.01;	%SE2 0 - DK1 0
	57	54	1	0.0	0.0	0.0	0.0	1.0	1.0	-600.0	600.0	-600.0	600.0	-600.0	600.0	0.0	0.01;	%FI2 0 - EE6 0
	57	54	1	0.0	0.0	0.0	0.0	1.0	1.0	-650.0	650.0	-650.0	650.0	-650.0	650.0	0.0	0.01;	%FI2 0 - EE6 0
	88	57	1	0.0	0.0	0.0	0.0	1.0	1.0	-800.0	800.0	-800.0	800.0	-800.0	800.0	0.0	0.01;	%SE2 0 - FI2 0
	88	57	1	0.0	0.0	0.0	0.0	1.0	1.0	-500.0	500.0	-500.0	500.0	-500.0	500.0	0.0	0.01;	%SE2 0 - FI2 0
	55	58	1	0.0	0.0	0.0	0.0	1.0	1.0	-2200.0	2200.0	-2200.0	2200.0	-2200.0	2200.0	0.0	0.01;	%ES1 0 - FR1 0
	70	60	1	0.0	0.0	0.0	0.0	1.0	1.0	-1000.0	1000.0	-1000.0	1000.0	-1000.0	1000.0	0.0	0.01;	%IT1 0 - FR1 2
	61	63	1	0.0	0.0	0.0	0.0	1.0	1.0	-1000.0	1000.0	-1000.0	1000.0	-1000.0	1000.0	0.0	0.01;	%FR1 3 - GB0 0
	63	7	1	0.0	0.0	0.0	0.0	1.0	1.0	-1000.0	1000.0	-1000.0	1000.0	-1000.0	1000.0	0.0	0.01;	%GB0 0 - BE1 0
	51	49	1	0.0	0.0	0.0	0.0	1.0	1.0	-2000.0	2000.0	-2000.0	2000.0	-2000.0	2000.0	0.0	0.01;	%DE1 9 - DE1 7
...